Mass spectrum: Hydroferulic acid; MS/MS; ESI-TOF; CE:9 eV; [M+H]+
Name: Hydroferulic acid
Name: 3-(4-Hydroxy-3-methoxyphenyl)propionic acid
Class: unknown
Formula: C10H12O4
Exact mass: 196.073558864
SMILES: COC1=CC(CCC(O)=O)=CC=C1(O)
InChI: not available
Instrument: micrOTOF-Q
Instrument type: ESI-TOF
Precursor m/z: 197.081
Precursor type: [M+H]+
Base peak: 137.061
m/z	relative intensity
137.060	999
138.064	88
149.060	160
153.056	69
195.071	66
196.074	319
197.076	42
