Mass spectrum: Triethanolamine; ; ESI-TOF; CE:10 eV; [M-H]-
Name: Triethanolamine
Name: 2,2',2''-Nitrilotriethanol
Name: Alkanolamine
Name: Stingkill
Name: Trolamine
Name: Tris(2-hydroxyethyl)amine
Class: unknown
Formula: C6H15NO3
Exact mass: 149.10519333999997
SMILES: OCCN(CCO)CCO
InChI: not available
Instrument: micrOTOF-Q
Instrument type: ESI-TOF
Precursor m/z: 150.113
Precursor type: [M-H]-
Base peak: 192.089
m/z	relative intensity
88.988	56
102.947	52
121.029	132
130.085	33
135.045	64
146.941	170
148.097	684
149.101	47
162.076	112
192.082	999
193.086	73
194.098	41
212.067	108
218.060	159
234.006	205
247.013	103
248.016	38
281.244	75
350.110	103
351.117	89
