Mass spectrum: 3-Methylxanthine; MS/MS; ESI-TOF; CE:19 eV; [M+H]+
Name: 3-Methylxanthine
Name: 2,6-Dihydroxy-3-methylpurine
Name: 3-Methyl Xanthine
Name: 3-Methyl-3,9-dihydro-purine-2,6-dione
Name: 3-Methyl-xanthine
Class: unknown
Formula: C6H6N4O2
Exact mass: 166.049075432
SMILES: CN2C(=O)NC(=O)C=1NC=NC=12
InChI: not available
Instrument: micrOTOF-Q
Instrument type: ESI-TOF
Precursor m/z: 167.057
Precursor type: [M+H]+
Base peak: 124.053
m/z	relative intensity
69.043	20
94.040	34
96.055	189
99.019	39
123.066	83
124.051	999
125.053	64
126.031	43
142.061	90
149.046	65
150.031	21
167.057	949
168.059	85
