Mass spectrum: Phenylethylamine; ; ESI-TOF; CE:10 eV; [M+H]+
Name: Phenylethylamine
Name: 2-Phenethylamine
Name: 2-Phenylethylamine
Name: Benzeneethanamine
Name: Beta-aminoethylbenzene
Name: Beta-phenylethylamine
Name: Phenethylamine
Class: unknown
Formula: C8H11N
Exact mass: 121.08914935199999
SMILES: NCCC=1C=CC=CC=1
InChI: not available
Instrument: micrOTOF-Q
Instrument type: ESI-TOF
Precursor m/z: 115.076
Precursor type: [M+H]+
Base peak: 122.098
m/z	relative intensity
122.096	999
123.100	92
124.103	4
