Mass spectrum: Gallic acid; ; ESI-TOF; CE:10 eV; [M+H]+
Name: Gallic acid
Name: Gallate
Name: 3,4,5-Trihydroxybenzoate
Name: 3,4,5-Trihydroxybenzoic acid
Name: Pyrogallol-5-carboxylic acid
Class: unknown
Formula: C7H6O5
Exact mass: 170.02152329199998
SMILES: OC(=O)C1=CC(O)=C(O)C(O)=C1
InChI: not available
Instrument: micrOTOF-Q
Instrument type: ESI-TOF
Precursor m/z: 171.03
Precursor type: [M+H]+
Base peak: 171.03
m/z	relative intensity
107.012	15
109.029	48
125.022	30
127.039	313
128.043	23
129.060	6
137.032	7
144.080	18
146.961	10
149.023	20
153.019	274
154.022	22
159.969	12
162.091	15
171.030	999
172.033	72
173.034	14
