Mass spectrum: Genistein; MS/MS; ESI-TOF; CE:-33 eV; [M-H]-
Name: Genistein
Name: 4',5,7-Trihydroxyisoflavone
Name: 5,7,4'-Trihydroxyisoflavone
Name: 5,7-Dihydroxy-3-(4-hydroxyphenyl)-4H-1-benzopyran-4-one
Class: unknown
Formula: C15H10O5
Exact mass: 270.05282342
SMILES: OC1=CC=C(C=C1)C2=COC=3C=C(O)C=C(O)C=3(C2(=O))
InChI: not available
Instrument: micrOTOF-Q
Instrument type: ESI-TOF
Precursor m/z: 269.045
Precursor type: [M-H]-
Base peak: 269.046
m/z	relative intensity
83.012	20
89.003	38
91.018	108
107.013	255
108.017	17
117.034	27
123.044	59
131.049	25
132.021	60
133.029	777
134.033	76
135.041	239
136.044	19
143.050	19
151.004	65
153.021	38
155.051	66
156.056	28
157.033	104
158.036	23
159.045	331
160.048	33
161.026	43
167.049	17
168.057	14
169.064	85
171.046	44
173.058	36
176.011	15
180.057	105
181.065	191
182.051	28
183.044	178
184.048	25
185.059	14
195.045	23
196.052	71
197.059	86
199.040	61
201.055	151
202.057	19
213.055	62
223.039	24
224.047	130
225.054	119
226.055	15
227.035	40
239.034	15
240.041	37
241.048	45
268.038	14
269.044	999
270.047	148
271.050	22
