Mass spectrum: (DL) isocitric acid; MS/MS; ESI-TOF; CE:9 eV; [M+H]+
Name: (DL) isocitric acid
Name: 1-Hydroxytricarballylic acid
Name: Isocitrate
Name: 1-Hydroxypropane-1,2,3-tricarboxylic acid
Name: D,L-Isocitric acid
Class: unknown
Formula: C6H8O7
Exact mass: 192.027002596
SMILES: OC(=O)CC(C(O)=O)C(O)C(O)=O
InChI: not available
Instrument: micrOTOF-Q
Instrument type: ESI-TOF
Precursor m/z: 193.035
Precursor type: [M+H]+
Base peak: 129.019
m/z	relative intensity
83.012	55
101.023	464
129.018	999
130.022	66
147.029	174
157.012	107
175.025	358
193.034	79
194.120	54
195.088	54
