Mass spectrum: N-Acetyl-L-phenylalanine; ; ESI-TOF; CE:10 eV; [M+H]+
Name: N-Acetyl-L-phenylalanine
Name: (2S)-2-Acetamido-3-phenylpropanoic acid
Name: Acetyl-L-phenylalanine  ,L-N-acetylphenylalanine ,N-acetylphenylalanine ,N-acetyl-3-phenyl-L-Alanine,acetyl phenylalanine
Class: unknown
Formula: C11H13NO3
Exact mass: 207.08954327599997
SMILES: CC(=O)NC(CC=1C=CC=CC=1)C(O)=O
InChI: not available
Instrument: micrOTOF-Q
Instrument type: ESI-TOF
Precursor m/z: 189.087
Precursor type: [M+H]+
Base peak: 208.095
m/z	relative intensity
103.055	19
120.080	352
121.083	34
122.094	6
146.961	6
149.030	12
162.091	666
163.094	74
166.086	804
167.089	81
168.091	7
180.101	6
181.952	13
190.086	140
191.089	16
204.968	5
208.098	999
209.100	111
210.103	14
224.126	6
230.080	794
231.083	92
232.086	8
