Mass spectrum: (L) Tyrosyl-L-leucine; MS/MS; ESI-TOF; CE:10 eV; [M-H]-
Name: (L) Tyrosyl-L-leucine
Name: (2S)-2-[[(2S)-2-Amino-3-(4-hydroxyphenyl)propanoyl]amino]-4-methylpentanoic acid
Name: Tyr-Leu
Class: unknown
Formula: C15H22N2O4
Exact mass: 294.157957184
SMILES: CC(C)CC(NC(=O)C(N)CC=1C=CC(O)=CC=1)C(=O)O
InChI: not available
Instrument: micrOTOF-Q
Instrument type: ESI-TOF
Precursor m/z: 293.15
Precursor type: [M-H]-
Base peak: 130.088
m/z	relative intensity
106.041	42
107.050	331
108.050	26
119.050	42
130.087	999
131.090	60
134.061	60
141.103	433
142.106	31
143.119	69
187.109	278
188.113	26
232.133	171
233.138	26
249.161	56
293.150	618
294.152	105
