Mass spectrum: Phytosphingosine; ; ESI-TOF; CE:10 eV; [M+H]+
Name: Phytosphingosine
Name: 4-Hydroxysphinganine,4-D-hydroxysphinganine  ,1,3,4-octadecanetriol, 2-amino-, (2S-(2R*,3R*,4S*))-,Phytosphingosine hydrochloride ,D-Ribo-1,3,4-trihydroxy-2-aminooctadecane,D-Ribo-2-aminooctadecane-1,3,4-triol
Name: Phytosphingosine, 4-hydroxysphinganine, 4-D-hydroxysphinganine, nchembio.191-comp6, D-Ribo-phytosphingosine, Phytosphingosine hydrochloride, P2795_SIGMA, CHEbi:46961, MolPort-003-959-216, CID122121, LMSP01030001, D-Ribo-2-aminooctadecane-1,3,4-triol, SMP2_000142, NCGC00163609-01, D-Ribo-1,3,4-trihydroxy-2-aminooctadecane, P1765, (2S,3S,4R)-2-amino-1,3,4-octadecanetriol, C12144, 1,3,4-octadecanetriol, 2-amino-, (2S-(2R*,3R*,4S*))-, 554-62-1, PHS
Class: unknown
Formula: C18H39NO3
Exact mass: 317.292994108
SMILES: CCCCCCCCCCCCCCC(O)C(O)C(N)CO
InChI: not available
Instrument: micrOTOF-Q
Instrument type: ESI-TOF
Precursor m/z: 165.02
Precursor type: [M+H]+
Base peak: 318.303
m/z	relative intensity
122.0955	26
124.0854	5
128.9493	5
146.9610	6
149.0229	17
152.1052	7
163.9391	6
181.9512	13
204.9663	6
209.1499	6
245.0800	8
282.2792	6
289.2164	9
300.2909	14
318.3018	999
319.3056	195
320.3076	25
340.2852	31
341.2865	7
