Mass spectrum: 2-(4-Hydroxyphenyl)propionic acid; ; ESI-TOF; CE:10 eV; [M+H]+
Name: 2-(4-Hydroxyphenyl)propionic acid
Class: unknown
Formula: C9H10O3
Exact mass: 166.06299417999998
SMILES: CC(C(O)=O)C=1C=CC(O)=CC=1
InChI: not available
Instrument: micrOTOF-Q
Instrument type: ESI-TOF
Precursor m/z: 167.071
Precursor type: [M+H]+
Base peak: 167.069
m/z	relative intensity
167.070	999
168.074	100
169.076	11
