Mass spectrum: Gentisic acid; ; ESI-TOF; CE:10 eV; [M+H]+
Name: Gentisic acid
Name: 2,5-Dihydroxybenzoate
Name: 2,5-Dioxybenzoate
Name: 2,5-Dioxybenzoic acid
Name: 5-Hydroxysalicylic acid
Name: Carboxyhydroquinone
Name: Gentisate
Name: Hydroquinonecarboxylic acid
Class: unknown
Formula: C7H6O4
Exact mass: 154.026608672
SMILES: OC1=CC=C(O)C(=C1)C(O)=O
InChI: not available
Instrument: micrOTOF-Q
Instrument type: ESI-TOF
Precursor m/z: 169.015
Precursor type: [M+H]+
Base peak: 155.036
m/z	relative intensity
155.034	999
156.037	78
157.039	11
