Mass spectrum: Isethionicacid; ; ESI-TOF; CE:10 eV; [M-H]-
Name: Isethionicacid
Name: 2-Hydroxyethanesulfonate,2-hydroxyethanesulfonic acid,2-hydroxyethane-1-sulfonic acid,2-hydroxyethane-1-sulfonate,Isethionate
Class: unknown
Formula: C2H6O4S
Exact mass: 125.998679672
SMILES: OCCS(O)(=O)=O
InChI: not available
Instrument: micrOTOF-Q
Instrument type: ESI-TOF
Precursor m/z: 230.139
Precursor type: [M-H]-
Base peak: 124.988
m/z	relative intensity
79.956	73
81.953	5
94.980	103
96.976	6
106.980	33
122.975	7
124.992	999
125.993	33
126.988	54
