Mass spectrum: 1,2,4-Trihydroxybenzol; ; ESI-TOF; CE:10 eV; [M+H]+
Name: 1,2,4-Trihydroxybenzol
Name: Hydroxyhydroquinone
Name: 1,2,4-Benzenetriol,
Name: 1,2,4-Trihydroxybenzene
Name: Hydroxyquinol
Class: unknown
Formula: C6H6O3
Exact mass: 126.03169405199999
SMILES: OC1=CC=C(O)C(O)=C1
InChI: not available
Instrument: micrOTOF-Q
Instrument type: ESI-TOF
Precursor m/z: 124.024
Precursor type: [M+H]+
Base peak: 127.036
m/z	relative intensity
81.032	213
97.028	35
109.028	940
110.032	68
121.049	27
125.022	98
126.031	435
127.038	999
128.042	86
149.023	80
164.024	236
164.524	38
173.030	50
218.034	65
219.019	29
230.961	50
233.024	24
234.947	60
236.946	21
238.992	55
239.997	138
244.979	34
245.064	118
247.025	38
249.039	123
250.047	77
251.054	178
252.059	25
267.051	63
295.027	72
301.003	59
304.994	37
305.992	42
306.992	502
307.996	79
308.997	48
325.003	171
326.005	22
