Mass spectrum: Hexanoyl-L-carnitine; ; ESI-TOF; CE:10 eV; [M+H]+
Name: Hexanoyl-L-carnitine
Name: (3R)-3-Hexanoyloxy-4-trimethylazaniumylbutanoate
Name: (R)-Caproylcarnitine
Name: L-Hexanoylcarnitine
Name: O-Hexanoyl-R-carnitine
Class: unknown
Formula: C13H25NO4
Exact mass: 259.17835828
SMILES: CCCCCC(=O)OC(CC(=O)[O-])C[N+](C)(C)C
InChI: not available
Instrument: micrOTOF-Q
Instrument type: ESI-TOF
Precursor m/z: 304.175
Precursor type: [M+H]+
Base peak: 260.182
m/z	relative intensity
260.186	999
261.189	149
262.191	19
263.194	2
