Mass spectrum: N-Methyl aspartic acid; MS/MS; ESI-TOF; CE:18 eV; [M+H]+
Name: N-Methyl aspartic acid
Name: (2R)-2-Methylaminobutanedioic acid
Name: (R)-2-(Methylamino)succinic acid
Name: NMDA
Name: Methyl aspartic acid
Name: N-Methylaspartate
Name: N-Methyl-aspartic acid
Name: N-Methyl-D-aspartate
Name: N-Methyl-D-aspartic acid
Class: unknown
Formula: C5H9NO4
Exact mass: 147.053157768
SMILES: CNC(CC(O)=O)C(O)=O
InChI: not available
Instrument: micrOTOF-Q
Instrument type: ESI-TOF
Precursor m/z: 148.06
Precursor type: [M+H]+
Base peak: 88.039
m/z	relative intensity
84.043	197
85.046	11
88.039	999
89.043	40
102.055	346
103.059	18
