Mass spectrum: Paraxanthine; ; ESI-TOF; CE:10 eV; [M+H]+
Name: Paraxanthine
Name: 1,7-Dimethylxanthine
Name: 1,7-Dimethyl-3H-purine-2,6-dione
Class: unknown
Formula: C7H8N4O2
Exact mass: 180.064725496
SMILES: CN2C=NC=1NC(=O)N(C)C(=O)C=12
InChI: not available
Instrument: micrOTOF-Q
Instrument type: ESI-TOF
Precursor m/z: 181.073
Precursor type: [M+H]+
Base peak: 181.073
m/z	relative intensity
181.072	999
182.075	91
183.076	8
