Mass spectrum: 3-Hydroxy-2-methylbutyric acid; MS/MS; ESI-TOF; CE:7 eV; [M+H]+
Name: 3-Hydroxy-2-methylbutyric acid
Class: unknown
Formula: C5H10O3
Exact mass: 118.06299417999999
SMILES: CC(O)C(C)C(O)=O
InChI: not available
Instrument: micrOTOF-Q
Instrument type: ESI-TOF
Precursor m/z: 119.071
Precursor type: [M+H]+
Base peak: 101.059
m/z	relative intensity
73.064	210
83.049	106
101.060	999
119.072	78
