Mass spectrum: o-Coumaric acid; ; ESI-TOF; CE:10 eV; [M+H]+
Name: o-Coumaric acid
Name: Trans-2-hydroxycinnamic acid
Name: 2-Coumarate
Name: 2-Coumaric acid
Name: 2-Hydroxycinnamic acid
Name: o-Coumarate
Name: (E)-o-Hydroxycinnamic acid
Name: Trans-2-Coumaric acid
Name: Trans-2-hydroxycinnamate
Name: (E)-3-(2-Hydroxyphenyl)prop-2-enoic acid
Name: Trans-o-Coumaric acid
Class: unknown
Formula: C9H8O3
Exact mass: 164.04734411599998
SMILES: OC(=O)C=CC=1C=CC=CC=1(O)
InChI: not available
Instrument: micrOTOF-Q
Instrument type: ESI-TOF
Precursor m/z: 165.055
Precursor type: [M+H]+
Base peak: 147.043
m/z	relative intensity
91.055	17
95.049	23
103.054	145
104.058	13
105.046	4
119.049	4
121.065	41
122.086	3
123.045	289
124.048	22
125.049	3
147.044	999
148.047	91
149.038	7
165.055	390
166.058	37
167.057	4
187.036	223
188.039	21
205.048	104
206.051	10
