Mass spectrum: L-Allo-threonine; ; ESI-TOF; CE:10 eV; [M+H]+
Name: L-Allo-threonine
Name: L-Allothreonine,(2S,3S)-2-amino-3-hydroxybutanoate ,(2S,3S)-2-amino-3-hydroxybutanoic acid,Allo-L-threonine
Class: unknown
Formula: C4H9NO3
Exact mass: 119.058243148
SMILES: CC(O)C(N)C(O)=O
InChI: not available
Instrument: micrOTOF-Q
Instrument type: ESI-TOF
Precursor m/z: 118.051
Precursor type: [M+H]+
Base peak: 120.063
m/z	relative intensity
74.061	157
75.065	8
84.045	73
102.055	517
103.058	27
116.070	33
120.066	999
121.069	63
122.072	8
130.085	32
134.082	36
142.052	7
148.097	31
149.023	10
158.082	9
159.077	10
161.046	10
176.092	15
189.040	17
203.103	44
217.120	7
221.114	36
222.123	7
223.002	7
224.130	7
239.126	82
240.129	6
247.112	10
249.018	11
292.040	8
293.047	57
294.048	6
295.052	6
