Mass spectrum: N-Acetyl-L-phenylalanine; MS/MS; ESI-TOF; CE:10 eV; [M-H]-
Name: N-Acetyl-L-phenylalanine
Name: (2S)-2-Acetamido-3-phenylpropanoic acid
Name: Acetyl-L-phenylalanine  ,L-N-acetylphenylalanine ,N-acetylphenylalanine ,N-acetyl-3-phenyl-L-Alanine,acetyl phenylalanine
Class: unknown
Formula: C11H13NO3
Exact mass: 207.08954327599997
SMILES: CC(=O)NC(CC=1C=CC=CC=1)C(O)=O
InChI: not available
Instrument: micrOTOF-Q
Instrument type: ESI-TOF
Precursor m/z: 206.082
Precursor type: [M-H]-
Base peak: 164.068
m/z	relative intensity
70.029	11
72.008	22
91.054	330
92.057	31
103.054	18
112.985	16
135.045	32
147.045	453
148.048	44
162.093	9
164.071	999
165.074	93
206.081	463
207.085	55
