Mass spectrum: 5-Methylcytidine; ; ESI-TOF; CE:10 eV; [M+H]+
Name: 5-Methylcytidine
Name: 5-Methyl-cytidine
Class: unknown
Formula: C10H15N3O5
Exact mass: 257.10117058
SMILES: CC1=CN(C(=O)N=C1(N))C2OC(CO)C(O)C2(O)
InChI: not available
Instrument: micrOTOF-Q
Instrument type: ESI-TOF
Precursor m/z: 143.106
Precursor type: [M+H]+
Base peak: 258.106
m/z	relative intensity
258.108	999
259.111	123
260.113	17
261.116	1
