Mass spectrum: 6-Dimethylaminopurine; MS/MS; ESI-TOF; CE:-18 eV; [M-H]-
Name: 6-Dimethylaminopurine
Name: 6,6-Dimethyladenine
Name: Dimethyladenine
Name: DMP
Name: N(6),N(6)-Dimethyladenine
Name: N,N-Dimethyl-6-aminopurine
Name: N,N-Dimethyladenine
Name: N,N-Dimethyl-Adenine
Name: N6,N6-Dimethyladenine
Name: N6,N6-Dimethyl-Adenine
Class: unknown
Formula: C7H9N5
Exact mass: 163.085795288
SMILES: CN(C)C2=NC=NC=1NC=NC=12
InChI: not available
Instrument: micrOTOF-Q
Instrument type: ESI-TOF
Precursor m/z: 162.078
Precursor type: [M-H]-
Base peak: 162.082
m/z	relative intensity
146.047	32
147.054	217
148.056	20
162.078	999
163.080	92
