Mass spectrum: 5-Hydroxy-6-methyluracil; ; ESI-TOF; CE:10 eV; [M-H]-
Name: 5-Hydroxy-6-methyluracil
Class: unknown
Formula: C6H8N2O3
Exact mass: 156.053492116
SMILES: [H]OC(=O)C([H])([H])C(O[H])C([H])([H])C([H])([H])C([H])([H])C([H])([H])C([H])([H])C([H])([H])C([H])([H])C([H])([H])C([H])([H])[H]
InChI: not available
Instrument: micrOTOF-Q
Instrument type: ESI-TOF
Precursor m/z: 155.047
Precursor type: [M-H]-
Base peak: 155.049
m/z	relative intensity
155.046	999
156.050	73
157.050	8
