Mass spectrum: N-Methyl-Nicotinamide; ; ESI-TOF; CE:10 eV; [M+H]+
Name: N-Methyl-Nicotinamide
Class: unknown
Formula: C7H8N2O
Exact mass: 136.063662876
SMILES: CNC(=O)C=1C=CC=NC=1
InChI: not available
Instrument: micrOTOF-Q
Instrument type: ESI-TOF
Precursor m/z: 137.071
Precursor type: [M+H]+
Base peak: 137.073
m/z	relative intensity
137.071	999
138.074	84
139.078	5
