Mass spectrum: Ribitol; ; ESI-TOF; CE:10 eV; [M-H]-
Name: Ribitol
Name: Adonitol,meso-ribitol,
Class: unknown
Formula: C5H12O5
Exact mass: 152.06847348399998
SMILES: OCC(O)C(O)C(O)CO
InChI: not available
Instrument: micrOTOF-Q
Instrument type: ESI-TOF
Precursor m/z: 166.086
Precursor type: [M-H]-
Base peak: 151.061
m/z	relative intensity
151.061	999
152.065	57
153.065	12
