Mass spectrum: Guanidinopropionic acid; ; ESI-TOF; CE:10 eV; [M-H]-
Name: Guanidinopropionic acid
Name: 3-Carbamimidamidopropanoic acid
Name: 3-Guanidinopropanoate
Name: 3-Guanidinopropanoic acid
Name: 3-Guanidinopropionic acid
Name: Beta-guanadinopropionate
Name: Beta-guanidinopropionic acid
Name: N-(Aminoiminomethyl)-beta-alanine
Class: unknown
Formula: C4H9N3O2
Exact mass: 131.069476528
SMILES: NC(=N)NCCC(O)=O
InChI: not available
Instrument: micrOTOF-Q
Instrument type: ESI-TOF
Precursor m/z: 132.078
Precursor type: [M-H]-
Base peak: 392.196
m/z	relative intensity
88.0382	31
112.9846	5
130.0614	258
131.0641	13
260.0187	5
261.1304	862
262.1323	89
263.1346	11
307.1359	122
308.1382	17
392.2004	999
393.2012	150
394.2035	21
