Mass spectrum: 2-Keto-D-gluconic acid; ; ESI-TOF; CE:10 eV; [M-H]-
Name: 2-Keto-D-gluconic acid
Name: D-Arabino-2-hexulopyranosonic acid hemicalcium salt hydrate
Name: 2-Keto-D-gluconic acid hemicalcium salt hydrate
Name: 2-Oxogluconic acid
Name: Alpha-D-Arabino-2-hexulosonic acid
Name: 2-Dehydro-D-gluconic acid
Name: Calcium 2-keto-D-gluconate
Name: D-Arabino-hex-2-ulosonic acid
Class: unknown
Formula: C6H10O7
Exact mass: 194.04265266
SMILES: OCC(O)C(O)C(O)C(=O)C(O)=O
InChI: not available
Instrument: micrOTOF-Q
Instrument type: ESI-TOF
Precursor m/z: 193.035
Precursor type: [M-H]-
Base peak: 193.034
m/z	relative intensity
193.035	999
194.039	69
195.040	16
196.043	1
