Mass spectrum: 6-Methylnicotinic acid; ; ESI-TOF; CE:10 eV; [M+H]+
Name: 6-Methylnicotinic acid
Name: 6-Methylpyridine-3-carboxylic acid
Class: unknown
Formula: C7H7NO2
Exact mass: 137.047678464
SMILES: CC1=CC=C(C=N1)C(O)=O
InChI: not available
Instrument: micrOTOF-Q
Instrument type: ESI-TOF
Precursor m/z: 138.055
Precursor type: [M+H]+
Base peak: 138.057
m/z	relative intensity
138.055	999
139.058	81
140.060	7
