Mass spectrum: o-Coumaric acid; MS/MS; ESI-TOF; CE:-17 eV; [M-H]-
Name: o-Coumaric acid
Name: Trans-2-hydroxycinnamic acid
Name: 2-Coumarate
Name: 2-Coumaric acid
Name: 2-Hydroxycinnamic acid
Name: o-Coumarate
Name: (E)-o-Hydroxycinnamic acid
Name: Trans-2-Coumaric acid
Name: Trans-2-hydroxycinnamate
Name: (E)-3-(2-Hydroxyphenyl)prop-2-enoic acid
Name: Trans-o-Coumaric acid
Class: unknown
Formula: C9H8O3
Exact mass: 164.04734411599998
SMILES: OC(=O)C=CC=1C=CC=CC=1(O)
InChI: not available
Instrument: micrOTOF-Q
Instrument type: ESI-TOF
Precursor m/z: 119.132
Precursor type: [M-H]-
Base peak: 119.052
m/z	relative intensity
91.053	49
92.056	5
93.033	100
94.036	9
117.034	166
118.036	13
119.050	999
120.054	100
121.055	4
