Mass spectrum: Rosmarinicacid; ; ESI-TOF; CE:10 eV; [M-H]-
Name: Rosmarinicacid
Name: Rosmarinate
Class: unknown
Formula: C18H16O8
Exact mass: 360.084517472
SMILES: OC(=O)C(CC1=CC=C(O)C(O)=C1)OC(=O)C=CC2=CC=C(O)C(O)=C2
InChI: not available
Instrument: micrOTOF-Q
Instrument type: ESI-TOF
Precursor m/z: 359.076
Precursor type: [M-H]-
Base peak: 359.073
m/z	relative intensity
161.024	46
162.029	5
177.019	17
179.035	15
193.015	6
197.046	13
313.071	14
357.060	14
358.063	3
359.076	999
360.080	199
361.081	35
362.084	4
373.056	9
375.070	3
381.058	27
382.062	5
427.063	14
449.045	4
459.000	4
715.126	16
716.133	6
717.143	36
718.147	13
719.158	231
720.162	83
721.164	22
722.164	4
733.136	5
735.151	3
741.138	25
742.144	11
