Mass spectrum: 6-Methyladenine; MS/MS; ESI-TOF; CE:18 eV; [M+H]+
Name: 6-Methyladenine
Name: N6-Methyladenine
Name: (N-6)-Methyladenine
Name: 6-MAP
Name: 6-Methylaminopurine
Name: 6-Monomethylaminopurine
Name: N6-Monomethyladenine
Name: Methyl(purin-6-yl)amine
Name: N-Methyl-adenine
Name: N-Methyl-1H-Purin-6-amine
Class: unknown
Formula: C6H7N5
Exact mass: 149.070145224
SMILES: CNC1=NC=NC=2NC=NC1=2
InChI: not available
Instrument: micrOTOF-Q
Instrument type: ESI-TOF
Precursor m/z: 150.077
Precursor type: [M+H]+
Base peak: 150.073
m/z	relative intensity
94.039	64
96.056	15
108.043	15
109.051	10
112.051	9
119.034	9
121.045	11
123.066	78
133.050	30
135.054	25
148.062	16
150.077	999
151.078	88
