Mass spectrum: Octanoyl-L-carnitine; MS/MS; ESI-TOF; CE:10 eV; [M-H]-
Name: Octanoyl-L-carnitine
Name: (3-Carboxy-2-hydroxypropyl)trimethyl-ammonium octanoate hydroxide inner salt ,DL-octanoylcarnitine ,L-octanoylcarnitine ,O-octanoyl-DL-carnitine ,octanoic acid ester with (+/-)-(3-carboxy-2-hydroxypropyl)trimethylammonium hydroxide inner salt
Class: unknown
Formula: C15H29NO4
Exact mass: 287.209658408
SMILES: CCCCCCCC(=O)OC(CC(=O)[O-])C[N+](C)(C)C
InChI: not available
Instrument: micrOTOF-Q
Instrument type: ESI-TOF
Precursor m/z: 286.202
Precursor type: [M-H]-
Base peak: 143.108
m/z	relative intensity
143.107	999
144.110	86
