Mass spectrum: D-Erythronolactone; ; ESI-TOF; CE:10 eV; [M-H]-
Name: D-Erythronolactone
Name: (3R,4R)-3,4-Dihydroxyoxolan-2-one
Class: unknown
Formula: C4H6O4
Exact mass: 118.026608672
SMILES: OC1COC(=O)C1(O)
InChI: not available
Instrument: micrOTOF-Q
Instrument type: ESI-TOF
Precursor m/z: 316.251
Precursor type: [M-H]-
Base peak: 117.021
m/z	relative intensity
117.019	999
118.023	45
119.024	9
