Mass spectrum: Isohomovanillicacid; MS/MS; ESI-TOF; CE:10 eV; [M+H]+
Name: Isohomovanillicacid
Name: Homoisovanillic acid,4-methoxy-3-hydroxyphenylacetic acid,3-hydroxy-4-methoxyphenylacetic acid,isohomovanillate,Homo-iso-vanillic acid,Homoisovanillate
Class: unknown
Formula: C9H10O4
Exact mass: 182.0579088
SMILES: COC1=CC=C(CC(=O)O)C=C1(O)
InChI: not available
Instrument: micrOTOF-Q
Instrument type: ESI-TOF
Precursor m/z: 183.066
Precursor type: [M+H]+
Base peak: 137.062
m/z	relative intensity
91.052	5
94.041	16
122.036	69
123.041	6
137.060	999
138.064	94
139.067	8
