Mass spectrum: 7,8-Dihydrobiopterin; ; ESI-TOF; CE:10 eV; [M+H]+
Name: 7,8-Dihydrobiopterin
Name: 7,8-Dihydrobiopterin
Class: unknown
Formula: C9H13N5O3
Exact mass: 239.10183927600002
SMILES: CC(O)C(O)C=1CNC=2NC(N)=NC(=O)C=2(N=1)
InChI: not available
Instrument: micrOTOF-Q
Instrument type: ESI-TOF
Precursor m/z: 138.056
Precursor type: [M+H]+
Base peak: 240.11
m/z	relative intensity
240.109	999
241.112	118
242.114	13
