Mass spectrum: 2-Octenoic acid; MS/MS; ESI-TOF; CE:18 eV; [M+H]+
Name: 2-Octenoic acid
Name: 2-Octenic acid
Name: (2E)-2-Octenoic acid
Name: (E)-Oct-2-enoic acid
Name: 2Z-Octenoic acid
Name: Oct-2-enoic acid
Name: Trans-2-octenoic acid
Name: Trans-alpha-octenoic acid
Class: unknown
Formula: C8H14O2
Exact mass: 142.099379688
SMILES: CCCCCC=CC(O)=O
InChI: not available
Instrument: micrOTOF-Q
Instrument type: ESI-TOF
Precursor m/z: 143.106
Precursor type: [M+H]+
Base peak: 73.0247
m/z	relative intensity
73.027	999
74.032	35
138.058	12
143.106	12
