Mass spectrum: Myo-inositol; ; ESI-TOF; CE:10 eV; [M+H]+
Name: Myo-inositol
Name: Inositol,i-inositol  ,inositol-myo,meso-inositol,Dambose,mesoinositol  ,iso-inositol,Phaseomannitol,Phaseomannite,Mesoinosit,Mesoinosite,1,2,3,5/4,6-hexahydroxycyclohexane,,
Class: unknown
Formula: C6H12O6
Exact mass: 180.06338810399998
SMILES: OC1C(O)C(O)C(O)C(O)C1(O)
InChI: not available
Instrument: micrOTOF-Q
Instrument type: ESI-TOF
Precursor m/z: 181.071
Precursor type: [M+H]+
Base peak: 181.073
m/z	relative intensity
81.0343	14
109.0282	55
120.0643	6
127.0393	19
137.0279	6
144.0807	8
145.0494	18
149.0237	14
152.0697	19
161.0475	16
163.0591	55
165.0743	7
170.0816	43
171.0322	6
181.0707	999
182.0736	63
183.0759	14
189.0398	25
194.1162	9
198.0970	24
199.0815	135
200.0756	11
203.0519	74
204.0546	6
207.0448	6
208.0327	31
208.5335	6
209.0421	8
217.1259	11
221.0640	8
224.1282	20
280.9977	16
281.1030	8
290.0800	12
298.0666	23
298.5674	7
361.1375	204
362.1412	29
363.1447	6
