Mass spectrum: N-Acetylcarnosine; ; ESI-TOF; CE:10 eV; [M+H]+
Name: N-Acetylcarnosine
Class: unknown
Formula: C11H16N4O4
Exact mass: 268.117154992
SMILES: CN2C=NC=1NC(=O)NC(=O)C=12
InChI: not available
Instrument: micrOTOF-Q
Instrument type: ESI-TOF
Precursor m/z: 167.057
Precursor type: [M+H]+
Base peak: 269.129
m/z	relative intensity
269.124	999
270.128	137
271.129	17
