Mass spectrum: (DL) ethionine; MS/MS; ESI-TOF; CE:18 eV; [M+H]+
Name: (DL) ethionine
Name: (2S)-2-Amino-4-ethylsulfanyl-butanoic acid
Name: 2-Amino-4-(ethylthio)butyric acid
Name: 2-Amino-4-ethylsulfanyl-butanoic acid
Name: D,L-Ethionine
Class: unknown
Formula: C6H13NO2S
Exact mass: 163.066699656
SMILES: CCSCCC(N)C(=O)O
InChI: not available
Instrument: micrOTOF-Q
Instrument type: ESI-TOF
Precursor m/z: 164.075
Precursor type: [M+H]+
Base peak: 75.0269
m/z	relative intensity
67.053	5
73.010	78
74.024	124
74.813	3
75.025	999
76.028	42
77.021	46
84.044	73
85.028	44
89.039	8
91.021	10
101.041	147
102.055	376
103.055	25
105.038	4
118.069	362
119.020	35
119.065	29
120.065	19
147.048	362
148.051	30
149.044	17
164.074	12
