Mass spectrum: N-Methyl-L-glutamicacid; ; ESI-TOF; CE:10 eV; [M+H]+
Name: N-Methyl-L-glutamicacid
Name: 2-(Methylamino)pentanedioic acid
Name: N-Methyl-L-glutamate;,
Class: unknown
Formula: C6H11NO4
Exact mass: 161.068807832
SMILES: CNC(CCC(O)=O)C(O)=O
InChI: not available
Instrument: micrOTOF-Q
Instrument type: ESI-TOF
Precursor m/z: 162.077
Precursor type: [M+H]+
Base peak: 162.076
m/z	relative intensity
85.029	2
98.060	102
99.062	7
116.070	163
117.073	9
131.033	7
144.065	233
145.068	14
146.069	1
149.030	1
161.576	2
162.077	999
163.078	79
164.080	12
176.089	3
323.148	1
