Mass spectrum: L-Glutamine acid amide ??; ; ESI-TOF; CE:10 eV; [M+H]+
Name: L-Glutamine acid amide ??
Name: Glutamine
Name: L-Glutamine
Name: Levoglutamide
Name: (2S)-2,5-Diamino-5-oxopentanoic acid
Class: unknown
Formula: C5H10N2O3
Exact mass: 146.06914218
SMILES: NC(=O)CCC(N)C(O)=O
InChI: not available
Instrument: micrOTOF-Q
Instrument type: ESI-TOF
Precursor m/z: 147.076
Precursor type: [M+H]+
Base peak: 147.078
m/z	relative intensity
147.076	999
148.080	64
149.081	8
