Mass spectrum: (DL) beta-leucine; MS/MS; ESI-TOF; CE:18 eV; [M+H]+
Name: (DL) beta-leucine
Name: 2-Amino-4-mercaptobutyric acid
Name: 2-Amino-4-mercapto-DL-butyrate
Name: 2-Amino-4-mercapto-DL-butyric acid
Name: 2-Amino-4-sulfanyl-butanoic acid
Name: (DL) homocysteine
Name: DL-Homocysteine
Class: unknown
Formula: C6H13NO2
Exact mass: 131.094628656
SMILES: CC(C)C(N)CC(=O)O
InChI: not available
Instrument: micrOTOF-Q
Instrument type: ESI-TOF
Precursor m/z: 136.042
Precursor type: [M+H]+
Base peak: 90.0349
m/z	relative intensity
73.010	109
74.020	15
88.020	8
90.037	999
91.039	51
92.032	49
102.055	21
118.032	9
136.041	13
