Mass spectrum: 6-Methyladenine; ; ESI-TOF; CE:10 eV; [M+H]+
Name: 6-Methyladenine
Name: N6-Methyladenine
Name: (N-6)-Methyladenine
Name: 6-MAP
Name: 6-Methylaminopurine
Name: 6-Monomethylaminopurine
Name: N6-Monomethyladenine
Name: Methyl(purin-6-yl)amine
Name: N-Methyl-adenine
Name: N-Methyl-1H-Purin-6-amine
Class: unknown
Formula: C6H7N5
Exact mass: 149.070145224
SMILES: CNC1=NC=NC=2NC=NC1=2
InChI: not available
Instrument: micrOTOF-Q
Instrument type: ESI-TOF
Precursor m/z: 150.078
Precursor type: [M+H]+
Base peak: 150.073
m/z	relative intensity
113.963	6
128.950	8
131.974	8
141.958	7
146.959	12
149.021	12
150.077	999
151.079	80
