Mass spectrum: 3,4-Dimethoxyphenylacetic acid; MS/MS; ESI-TOF; CE:18 eV; [M+H]+
Name: 3,4-Dimethoxyphenylacetic acid
Name: (3,4-Dimethoxyphenyl)acetate
Name: (3,4-Dimethoxyphenyl)acetic acid
Name: 3,4-(Dimethoxy)benzeneacetic acid
Name: 3,4-Dimethoxybenzeneacetate
Name: 3,4-Dimethoxybenzeneacetic acid
Name: 3,4-Dimethoxyphenyl acetic acid
Name: 3,4-Dimethoxyphenylacetate
Name: Homoveratrate
Name: Homoveratric acid
Class: unknown
Formula: C10H12O4
Exact mass: 196.073558864
SMILES: COC1=CC=C(CC(O)=O)C=C1(OC)
InChI: not available
Instrument: micrOTOF-Q
Instrument type: ESI-TOF
Precursor m/z: 151.076
Precursor type: [M+H]+
Base peak: 151.072
m/z	relative intensity
78.045	24
79.054	49
80.061	48
90.047	56
91.054	125
93.035	32
105.035	50
106.042	59
107.049	633
108.056	235
109.061	26
118.042	29
121.030	24
135.044	188
136.051	78
151.076	999
152.079	90
