Mass spectrum: Isoferulicacid; MS/MS; ESI-TOF; CE:10 eV; [M+H]+
Name: Isoferulicacid
Name: Hesperetic acid,Hespertitinic acid,3-hydroxy-4-methoxycinnamic acid  ,Cinnamic acid, 3-hydroxy-4-methoxy-,2-propenoic acid, 3-(3-hydroxy-4-methoxyphenyl)-,3-hydroxy-4-methoxycinnamic acid, predominantly trans ,
Class: unknown
Formula: C10H10O4
Exact mass: 194.0579088
SMILES: COC=1C=CC(C=CC(=O)O)=CC=1(O)
InChI: not available
Instrument: micrOTOF-Q
Instrument type: ESI-TOF
Precursor m/z: 195.065
Precursor type: [M+H]+
Base peak: 177.052
m/z	relative intensity
79.056	4
89.038	154
90.042	11
91.054	17
93.035	5
95.048	4
103.053	12
106.041	13
107.049	5
111.044	9
117.033	232
118.037	26
119.049	9
121.064	32
125.059	13
131.055	5
133.055	5
134.036	95
135.044	239
136.047	23
145.028	272
146.032	28
147.041	8
149.059	528
150.063	54
151.063	4
153.055	12
159.043	3
162.031	31
163.039	405
164.042	43
165.043	4
177.055	999
178.058	116
179.054	11
