Mass spectrum: 5-Hydroxyanthranilic acid; ; ESI-TOF; CE:10 eV; [M-H]-
Name: 5-Hydroxyanthranilic acid
Name: 2-Amino-5-hydroxybenzoate
Name: 2-Amino-5-hydroxybenzoicacid
Class: unknown
Formula: C7H7NO3
Exact mass: 153.042593084
SMILES: NC=1C=CC(O)=CC=1(C(=O)O)
InChI: not available
Instrument: micrOTOF-Q
Instrument type: ESI-TOF
Precursor m/z: 118.087
Precursor type: [M-H]-
Base peak: 152.035
m/z	relative intensity
94.028	9
95.015	3
107.037	31
108.045	165
109.047	11
122.025	16
124.038	2
146.942	2
152.036	999
153.037	82
154.040	8
