Mass spectrum: Methyl-b-D-galactopyranoside; MS/MS; ESI-TOF; CE:10 eV; [M-H]-
Name: Methyl-b-D-galactopyranoside
Name: Methyl b-D-galactoside
Class: unknown
Formula: C7H14O6
Exact mass: 194.07903816799998
SMILES: COC1OC(CO)C(O)C(O)C1(O)
InChI: not available
Instrument: micrOTOF-Q
Instrument type: ESI-TOF
Precursor m/z: 193.071
Precursor type: [M-H]-
Base peak: 101.025
m/z	relative intensity
71.014	118
83.013	86
85.028	285
86.001	58
87.007	50
97.029	119
99.007	86
101.024	999
113.023	259
125.025	60
127.039	73
161.045	69
193.071	789
194.076	81
