Mass spectrum: 7-Methylxanthine; ; ESI-TOF; CE:10 eV; [M+H]+
Name: 7-Methylxanthine
Class: unknown
Formula: C6H6N4O2
Exact mass: 166.049075432
SMILES: CN2C=NC=1NC(=O)NC(=O)C=12
InChI: not available
Instrument: micrOTOF-Q
Instrument type: ESI-TOF
Precursor m/z: 145.051
Precursor type: [M+H]+
Base peak: 167.054
m/z	relative intensity
113.964	4
124.050	20
125.002	3
128.951	5
131.975	3
137.027	5
141.959	5
142.060	5
145.932	3
146.960	5
149.024	13
150.026	4
159.969	10
161.063	4
161.967	2
163.942	11
166.592	6
167.057	999
168.059	77
169.060	6
