Mass spectrum: Pimelicacid; ; ESI-TOF; CE:10 eV; [M-H]-
Name: Pimelicacid
Name: Heptanedioic acid,6-carboxyhexanoate,Pimelate,Pimelic acid
Class: unknown
Formula: C7H12O4
Exact mass: 160.073558864
SMILES: OC(=O)CCCCCC(O)=O
InChI: not available
Instrument: micrOTOF-Q
Instrument type: ESI-TOF
Precursor m/z: 124.039
Precursor type: [M-H]-
Base peak: 159.066
m/z	relative intensity
95.049	9
97.065	135
98.068	10
112.985	7
115.077	54
141.055	49
142.058	6
146.941	10
159.067	999
160.069	78
161.069	11
181.048	94
182.050	7
341.120	7
363.100	7
