Mass spectrum: Isohomovanillicacid; ; ESI-TOF; CE:10 eV; [M-H]-
Name: Isohomovanillicacid
Name: Homoisovanillic acid,4-methoxy-3-hydroxyphenylacetic acid,3-hydroxy-4-methoxyphenylacetic acid,isohomovanillate,Homo-iso-vanillic acid,Homoisovanillate
Class: unknown
Formula: C9H10O4
Exact mass: 182.0579088
SMILES: COC1=CC=C(CC(=O)O)C=C1(O)
InChI: not available
Instrument: micrOTOF-Q
Instrument type: ESI-TOF
Precursor m/z: 144.066
Precursor type: [M-H]-
Base peak: 181.05
m/z	relative intensity
93.033	3
94.040	3
108.020	2
109.027	4
119.013	1
121.029	4
122.037	63
123.040	6
124.019	4
125.022	1
136.016	7
137.060	289
138.063	24
139.065	2
151.040	3
154.027	23
155.031	2
181.051	999
182.053	108
183.055	11
184.057	1
363.104	8
364.106	1
385.086	28
386.092	5
