Mass spectrum: Hexanoyl-L-carnitine; ; ESI-TOF; CE:10 eV; [M+H]+
Name: Hexanoyl-L-carnitine
Name: (3R)-3-Hexanoyloxy-4-trimethylazaniumylbutanoate
Name: (R)-Caproylcarnitine
Name: L-Hexanoylcarnitine
Name: O-Hexanoyl-R-carnitine
Class: unknown
Formula: C13H25NO4
Exact mass: 259.17835828
SMILES: CCCCCC(=O)OC(CC(=O)[O-])C[N+](C)(C)C
InChI: not available
Instrument: micrOTOF-Q
Instrument type: ESI-TOF
Precursor m/z: 172.097
Precursor type: [M+H]+
Base peak: 260.189
m/z	relative intensity
85.0284	5
146.9631	4
149.0235	8
179.9712	3
181.9526	12
201.1109	15
204.9746	4
207.9689	4
224.1286	4
233.9845	12
260.1883	999
261.1910	132
262.1938	16
