Mass spectrum: D-Tagatose; ; ESI-TOF; CE:10 eV; [M+H]+
Name: D-Tagatose
Name: (3S,4S,5R)-1,3,4,5,6-Pentahydroxyhexan-2-one
Name: D-Tag
Name: DL-Tagatose
Name: Tagatose
Name: Lyxo-hexulose
Class: unknown
Formula: C6H12O6
Exact mass: 180.06338810399998
SMILES: OCC1(O)(OCC(O)C(O)C1(O))
InChI: not available
Instrument: micrOTOF-Q
Instrument type: ESI-TOF
Precursor m/z: 141.068
Precursor type: [M+H]+
Base peak: 163.058
m/z	relative intensity
85.029	49
90.051	5
91.040	6
97.027	21
104.070	92
105.074	7
115.039	16
116.069	4
122.080	5
127.039	73
144.077	4
145.049	189
146.053	13
147.047	9
149.026	14
151.041	5
163.061	999
164.063	64
165.065	15
180.086	22
181.075	6
181.949	6
203.052	210
204.062	12
241.072	73
242.076	13
259.083	95
260.085	12
325.118	267
326.122	31
327.123	9
