Mass spectrum: Rosmarinicacid; ; ESI-TOF; CE:10 eV; [M-H]-
Name: Rosmarinicacid
Name: Rosmarinate
Class: unknown
Formula: C18H16O8
Exact mass: 360.084517472
SMILES: OC(=O)C(CC1=CC=C(O)C(O)=C1)OC(=O)C=CC2=CC=C(O)C(O)=C2
InChI: not available
Instrument: micrOTOF-Q
Instrument type: ESI-TOF
Precursor m/z: 361.091
Precursor type: [M-H]-
Base peak: 359.073
m/z	relative intensity
161.024	46
162.029	5
177.019	17
179.035	15
193.015	6
197.046	13
313.071	14
357.060	14
358.063	3
359.076	999
360.080	199
361.081	35
362.084	4
