Mass spectrum: 3-Methoxytyramine; MS/MS; ESI-TOF; CE:18 eV; [M+H]+
Name: 3-Methoxytyramine
Name: 3-Methoxy-4-hydroxyphenethylamine hydrochloride
Name: 3-MT
Name: 4-(2-Aminoethyl)-2-methoxy-phenol
Name: 4-(2-Aminoethyl)-2-methoxyphenol hydrochloride
Name: Methoxytyramine
Class: unknown
Formula: C9H13NO2
Exact mass: 167.094628656
SMILES: COC1=CC(CCN)=CC=C1(O)
InChI: not available
Instrument: micrOTOF-Q
Instrument type: ESI-TOF
Precursor m/z: 151.078
Precursor type: [M+H]+
Base peak: 91.0543
m/z	relative intensity
65.038	7
77.037	4
79.053	15
80.061	13
91.055	999
92.057	72
93.064	5
95.049	46
103.054	9
105.054	5
107.049	9
108.057	26
118.041	6
119.050	389
120.053	38
123.080	8
135.044	5
136.052	149
137.058	38
138.061	4
151.075	185
152.078	17
