Mass spectrum: Chlorogenic acid; MS/MS; ESI-TOF; CE:18 eV; [M+H]+
Name: Chlorogenic acid
Name: Chlorogenate
Name: 3-(3,4-Dihydroxycinnamoyl)quinic acid
Name: 3-Caffeoylquinic acid
Name: 3-O-Caffeoylquinic acid
Name: 5-O-(3,4-Dihydroxycinnamoyl)-L-quinic acid
Class: unknown
Formula: C16H18O9
Exact mass: 354.095082156
SMILES: O=C(C=CC1=CC=C(O)C(O)=C1)OC2CC(O)(CC(O)C2(O))C(O)=O
InChI: not available
Instrument: micrOTOF-Q
Instrument type: ESI-TOF
Precursor m/z: 163.039
Precursor type: [M+H]+
Base peak: 135.042
m/z	relative intensity
79.053	62
89.039	587
90.042	50
95.044	33
107.050	115
117.035	497
118.038	53
135.044	999
136.048	99
144.080	28
145.030	184
146.035	19
163.039	249
164.043	33
