Mass spectrum: Trigonelline; ; ESI-TOF; CE:10 eV; [M+H]+
Name: Trigonelline
Class: unknown
Formula: C7H8NO2
Exact mass: 138.055503496
SMILES: C[N+]1=CC=CC(=C1)C(O)=O
InChI: not available
Instrument: micrOTOF-Q
Instrument type: ESI-TOF
Precursor m/z: 138.055
Precursor type: [M+H]+
Base peak: 138.053
m/z	relative intensity
79.021	35
94.064	11
110.059	8
123.990	22
137.684	5
138.055	999
139.057	76
140.059	6
