Mass spectrum: 1,6-Anhydro-b-D-glucose; ; ESI-TOF; CE:10 eV; [M-H]-
Name: 1,6-Anhydro-b-D-glucose
Name: Glucosan
Name: 1,6-Anhydro-b-D-glucopyranose
Name: 1,6-Anhydro-beta-D-Glucopyranose
Name: 1,6-Anhydro-beta-D-glucose
Name: 1,6-Anhydro-beta-glucopyranose
Name: 1,6-Anhydro-D-glucose
Name: 1,6-Anhydroglucose
Name: 6,8-Dioxabicyclo[3.2.1]octane b-D-glucopyranose deriv.
Name: Anhydro-D-mannosan
Name: Leucoglucosan
Name: Levoglucosan
Class: unknown
Formula: C6H10O5
Exact mass: 162.05282341999998
SMILES: OC2C(O)C1COC(O1)C2(O)
InChI: not available
Instrument: micrOTOF-Q
Instrument type: ESI-TOF
Precursor m/z: 137.072
Precursor type: [M-H]-
Base peak: 207.047
m/z	relative intensity
75.007	26
88.037	10
89.023	833
90.026	26
95.975	40
101.022	12
104.034	17
113.021	9
114.054	11
116.071	17
118.050	11
119.035	14
130.086	9
137.035	16
148.061	11
160.842	29
161.045	878
162.050	60
162.839	30
163.059	10
164.836	9
197.022	67
197.807	11
199.019	26
205.035	95
206.039	9
207.050	999
208.053	82
209.055	21
221.011	51
239.022	46
323.096	632
324.099	80
325.103	17
