Mass spectrum: 3-Methylcatechol; ; ESI-TOF; CE:10 eV; [M-H]-
Name: 3-Methylcatechol
Name: 2,3-Dihydroxytoluene
Class: unknown
Formula: C7H8O2
Exact mass: 124.052429496
SMILES: CC1=CC=CC(O)=C1(O)
InChI: not available
Instrument: micrOTOF-Q
Instrument type: ESI-TOF
Precursor m/z: 168.101
Precursor type: [M-H]-
Base peak: 123.047
m/z	relative intensity
95.048	2
105.033	2
108.021	21
109.024	2
112.985	3
121.029	6
122.037	77
123.046	999
124.048	87
125.050	8
