Mass spectrum: 5-Methylcytidine; MS/MS; ESI-TOF; CE:22 eV; [M+H]+
Name: 5-Methylcytidine
Name: 5-Methyl-cytidine
Class: unknown
Formula: C10H15N3O5
Exact mass: 257.10117058000003
SMILES: CC1=CN(C(=O)N=C1(N))C2OC(CO)C(O)C2(O)
InChI: not available
Instrument: micrOTOF-Q
Instrument type: ESI-TOF
Precursor m/z: 258.11
Precursor type: [M+H]+
Base peak: 126.065
m/z	relative intensity
83.060	3
85.028	1
108.056	4
109.040	7
115.039	1
125.687	2
126.067	999
127.069	66
128.070	4
133.050	1
