Mass spectrum: 4-Hydroxyhippuric acid; ; ESI-TOF; CE:10 eV; [M-H]-
Name: 4-Hydroxyhippuric acid
Name: 4-Hydroxybenzoylglycine
Name: N-(4-Hydroxybenzoyl)glycine
Name: p-Hydroxyhippuric acid
Class: unknown
Formula: C9H9NO4
Exact mass: 195.053157768
SMILES: O=C(O)CNC(=O)C=1C=CC(O)=CC=1
InChI: not available
Instrument: micrOTOF-Q
Instrument type: ESI-TOF
Precursor m/z: 194.041
Precursor type: [M-H]-
Base peak: 194.046
m/z	relative intensity
194.046	999
195.049	103
196.051	13
