Mass spectrum: 6-Dimethylaminopurine; ; ESI-TOF; CE:10 eV; [M+H]+
Name: 6-Dimethylaminopurine
Name: 6,6-Dimethyladenine
Name: Dimethyladenine
Name: DMP
Name: N(6),N(6)-Dimethyladenine
Name: N,N-Dimethyl-6-aminopurine
Name: N,N-Dimethyladenine
Name: N,N-Dimethyl-Adenine
Name: N6,N6-Dimethyladenine
Name: N6,N6-Dimethyl-Adenine
Class: unknown
Formula: C7H9N5
Exact mass: 163.08579528799999
SMILES: CN(C)C2=NC=NC=1NC=NC=12
InChI: not available
Instrument: micrOTOF-Q
Instrument type: ESI-TOF
Precursor m/z: 164.093
Precursor type: [M+H]+
Base peak: 164.091
m/z	relative intensity
164.093	999
165.095	95
166.097	4
