Mass spectrum: 3-Methylcatechol; ; ESI-TOF; CE:10 eV; [M+H]+
Name: 3-Methylcatechol
Name: 2,3-Dihydroxytoluene
Class: unknown
Formula: C7H8O2
Exact mass: 124.052429496
SMILES: CC1=CC=CC(O)=C1(O)
InChI: not available
Instrument: micrOTOF-Q
Instrument type: ESI-TOF
Precursor m/z: 168.101
Precursor type: [M+H]+
Base peak: 247.096
m/z	relative intensity
77.037	33
79.053	142
95.048	124
105.044	53
107.049	727
108.052	64
123.044	325
124.051	124
125.059	476
126.063	43
145.025	737
146.029	57
149.023	55
161.033	36
162.045	119
163.038	73
167.517	22
168.016	50
169.023	27
169.531	20
170.033	22
171.050	27
211.074	53
212.988	37
213.993	34
228.060	22
229.086	79
230.993	28
237.009	192
238.015	105
245.082	179
246.089	400
247.097	999
248.101	142
289.067	49
291.082	55
300.011	45
302.025	35
303.033	75
318.022	473
319.028	153
320.033	33
321.045	34
