Mass spectrum: D-Mannoheptulose; MS/MS; ESI-TOF; CE:-10 eV; [M-H]-
Name: D-Mannoheptulose
Name: (+)-Mannoheptulose
Name: Alpha-D-Mannoheptulopyranose
Name: (D) Mannoheptulose
Name: Hept-2-ulose
Name: Mannoheptose
Name: D-Manno-2-heptulose
Class: unknown
Formula: C7H14O7
Exact mass: 210.07395278799999
SMILES: OCC1OC(O)(CO)C(O)C(O)C1(O)
InChI: not available
Instrument: micrOTOF-Q
Instrument type: ESI-TOF
Precursor m/z: 209.067
Precursor type: [M-H]-
Base peak: 119.036
m/z	relative intensity
71.012	71
89.023	411
101.023	744
102.028	37
113.024	124
119.035	999
120.038	52
131.034	28
143.033	32
149.044	92
