Mass spectrum: Isobutyrylglycine; MS/MS; ESI-TOF; CE:10 eV; [M+H]+
Name: Isobutyrylglycine
Name: 2-(Butan-2-ylamino)acetic acid
Name: Isobutyroylglycine
Class: unknown
Formula: C6H11NO3
Exact mass: 145.073893212
SMILES: CC(C)C(=O)NCC(O)=O
InChI: not available
Instrument: micrOTOF-Q
Instrument type: ESI-TOF
Precursor m/z: 146.081
Precursor type: [M+H]+
Base peak: 76.0423
m/z	relative intensity
76.040	999
146.081	915
149.023	383
