Mass spectrum: Myo-inositol; MS/MS; ESI-TOF; CE:10 eV; [M+H]+
Name: Myo-inositol
Name: Inositol,i-inositol  ,inositol-myo,meso-inositol,Dambose,mesoinositol  ,iso-inositol,Phaseomannitol,Phaseomannite,Mesoinosit,Mesoinosite,1,2,3,5/4,6-hexahydroxycyclohexane,,
Class: unknown
Formula: C6H12O6
Exact mass: 180.06338810399998
SMILES: OC1C(O)C(O)C(O)C(O)C1(O)
InChI: not available
Instrument: micrOTOF-Q
Instrument type: ESI-TOF
Precursor m/z: 181.071
Precursor type: [M+H]+
Base peak: 109.03
m/z	relative intensity
81.034	368
109.028	999
