Mass spectrum: 2-Hydroxysebacic acid; ; ESI-TOF; CE:10 eV; [M+H]+
Name: 2-Hydroxysebacic acid
Name: 2-Hydroxy-decandioate
Name: 2-Hydroxy-decandioic acid
Name: 2-Hydroxydecanedioate
Name: 2-Hydroxy-decanedioic acid
Name: 2-Hydroxysebacate
Name: a-Hydroxysebasate
Name: a-Hydroxysebasic acid
Name: Alpha-hydroxysebasate
Name: Alpha-hydroxysebasic acid
Class: unknown
Formula: C10H18O5
Exact mass: 218.11542367599998
SMILES: O=C(O)CCCCCCCC(O)C(=O)O
InChI: not available
Instrument: micrOTOF-Q
Instrument type: ESI-TOF
Precursor m/z: 217.109
Precursor type: [M+H]+
Base peak: 241.108
m/z	relative intensity
67.0539	5
81.0680	3
91.0537	4
95.0836	3
109.1007	57
110.1049	5
111.0813	4
119.0851	9
122.0947	3
127.1111	2
137.0950	16
138.0972	2
149.0227	5
155.1061	70
156.1093	8
173.1168	408
174.1202	44
175.1235	4
183.1009	12
195.0984	5
201.1116	109
202.1151	13
219.1227	536
220.1260	61
221.1281	8
240.3347	3
241.1053	999
242.1081	101
243.1099	13
