Mass spectrum: 2,5-Furandicarboxylic acid; MS/MS; ESI-TOF; CE:18 eV; [M+H]+
Name: 2,5-Furandicarboxylic acid
Name: 2,5-Furandicarboxylate
Name: 2, 5-Furandicarboxylic acid
Name: Dehydromucate
Name: Dehydromucic acid
Name: Furan 2,5-dicarboxylic acid
Name: Furan 2,5-dicarboxylate
Name: Furan-2,5-dicarboxylate
Name: Furane-a,a'-dicarboxylate
Name: Furane-a,a'-dicarboxylic acid
Name: Furane-alpha,alpha'-dicarboxylic acid
Class: unknown
Formula: C6H4O5
Exact mass: 156.00587322799998
SMILES: OC(=O)C1=CC=C(O1)C(O)=O
InChI: not available
Instrument: micrOTOF-Q
Instrument type: ESI-TOF
Precursor m/z: 157.014
Precursor type: [M+H]+
Base peak: 139.004
m/z	relative intensity
83.013	2
95.013	140
96.017	8
111.009	5
138.584	3
139.003	999
140.006	64
141.008	9
157.013	3
