Mass spectrum: 5-Hydroxymethyluracil; ; ESI-TOF; CE:10 eV; [M+H]+
Name: 5-Hydroxymethyluracil
Name: 5-(Hydroxymethyl)pyrimidine-2,4-dione
Name: Uracil-5-methanol
Class: unknown
Formula: C5H6N2O3
Exact mass: 142.03784205199997
SMILES: OCC1=CNC(=O)NC1(=O)
InChI: not available
Instrument: micrOTOF-Q
Instrument type: ESI-TOF
Precursor m/z: 125.034
Precursor type: [M+H]+
Base peak: 143.048
m/z	relative intensity
143.045	999
144.048	63
145.050	8
