Mass spectrum: Paraxanthine; ; ESI-TOF; CE:10 eV; [M-H]-
Name: Paraxanthine
Name: 1,7-Dimethylxanthine
Name: 1,7-Dimethyl-3H-purine-2,6-dione
Class: unknown
Formula: C7H8N4O2
Exact mass: 180.064725496
SMILES: CN2C=NC=1NC(=O)N(C)C(=O)C=12
InChI: not available
Instrument: micrOTOF-Q
Instrument type: ESI-TOF
Precursor m/z: 181.073
Precursor type: [M-H]-
Base peak: 179.059
m/z	relative intensity
122.035	15
146.941	3
154.973	4
164.034	21
179.057	999
180.059	89
181.061	8
194.067	4
195.053	2
206.972	6
237.014	9
239.011	3
247.043	10
287.033	2
313.031	2
381.100	50
382.101	9
