Mass spectrum: 5'-Deoxyadenosine; MS/MS; ESI-TOF; CE:22 eV; [M+H]+
Name: 5'-Deoxyadenosine
Name: 5-Deoxyadenosine
Name: 5'-Deoxy-Adenosine
Name: CH3Ado
Class: unknown
Formula: C10H13N5O3
Exact mass: 251.101839276
SMILES: CC1OC(C(O)C1(O))N3C=NC=2C(N)=NC=NC=23
InChI: not available
Instrument: micrOTOF-Q
Instrument type: ESI-TOF
Precursor m/z: 252.11
Precursor type: [M+H]+
Base peak: 136.059
m/z	relative intensity
73.027	5
117.055	3
119.035	1
135.651	3
136.063	999
137.063	77
138.065	3
