Mass spectrum: N-Acetylisatin; ; ESI-TOF; CE:10 eV; [M+H]+
Name: N-Acetylisatin
Name: 1-Acetylisatin
Name: Acetylisatin
Name: 1-Acetyl-indole-2,3-dione
Name: D: 11321
Class: unknown
Formula: C10H7NO3
Exact mass: 189.042593084
SMILES: CC(=O)N2C(=O)C(=O)C=1C=CC=CC=12
InChI: not available
Instrument: micrOTOF-Q
Instrument type: ESI-TOF
Precursor m/z: 206.047
Precursor type: [M+H]+
Base peak: 166.055
m/z	relative intensity
120.047	736
121.050	57
148.041	256
149.044	22
166.052	999
167.055	89
208.064	890
209.067	98
210.069	12
230.046	231
231.045	28
