Mass spectrum: N-Acetylarginine; ; ESI-TOF; CE:10 eV; [M-H]-
Name: N-Acetylarginine
Name: N2-Acetyl-L-arginine ,N-alpha-L-acetyl-arginine ,N-acetyl-L-arginine ,
Class: unknown
Formula: C8H16N4O3
Exact mass: 216.12224037199996
SMILES: CC(=O)NC(CCCN=C(N)N)C(O)=O
InChI: not available
Instrument: micrOTOF-Q
Instrument type: ESI-TOF
Precursor m/z: 217.131
Precursor type: [M-H]-
Base peak: 215.113
m/z	relative intensity
129.103	4
131.082	11
154.098	2
156.077	2
171.123	1
173.096	86
174.099	7
198.088	9
215.115	999
216.117	91
217.119	10
251.091	3
