Mass spectrum: Tricarballic acid; ; ESI-TOF; CE:10 eV; [M-H]-
Name: Tricarballic acid
Class: unknown
Formula: C6H8O6
Exact mass: 176.03208797599999
SMILES: OC(=O)CC(CC(O)=O)C(O)=O
InChI: not available
Instrument: micrOTOF-Q
Instrument type: ESI-TOF
Precursor m/z: 335.174
Precursor type: [M-H]-
Base peak: 175.021
m/z	relative intensity
87.044	21
113.027	20
131.036	33
157.014	900
158.017	58
175.025	999
176.028	65
177.029	12
