Mass spectrum: Isovalerylcarnitine; ; ESI-TOF; CE:10 eV; [M-H]-
Name: Isovalerylcarnitine
Name: 3-Methylbutyrylcarnitine  ,1-propanaminium, 3-carboxy-N,N,N-trimethyl-2-(3-methyl-1-oxobutoxy)-, inner salt, (R)-,
Class: unknown
Formula: C12H23NO4
Exact mass: 245.162708216
SMILES: CC(C)CC(=O)OC(CC(=O)[O-])C[N+](C)(C)C
InChI: not available
Instrument: micrOTOF-Q
Instrument type: ESI-TOF
Precursor m/z: 780.481
Precursor type: [M-H]-
Base peak: 290.165
m/z	relative intensity
101.059	127
102.063	7
112.986	12
144.103	416
145.106	35
147.066	43
188.093	144
189.096	15
190.929	11
200.165	65
201.167	9
244.155	24
246.170	31
290.160	999
291.163	137
292.164	21
346.221	101
347.223	19
433.254	60
434.254	15
489.317	7
535.322	213
536.325	57
537.326	14
780.481	734
781.483	273
782.485	73
783.488	15
