Mass spectrum: Lactulose; MS/MS; ESI-TOF; CE:10 eV; [M-H]-
Name: Lactulose
Name: 4-O-(Z)--D-Galactopyranosyl-D-fructofuranose,4-O-(Z)--D-Galactopyranosyl-D-fructose
Name: (2S,3R,4S,5R,6R)-2-[(2R,3S,4S,5R)-4,5-Dihydroxy-2,5-bis(hydroxymethyl)oxolan-3-yl]oxy-6-(hydroxymethyl)oxane-3,4,5-triol
Class: unknown
Formula: C12H22O11
Exact mass: 342.116211524
SMILES: OCC2OC(OC1C(CO)OC(O)(CO)C1(O))C(O)C(O)C2(O)
InChI: not available
Instrument: micrOTOF-Q
Instrument type: ESI-TOF
Precursor m/z: 683.225
Precursor type: [M-H]-
Base peak: 161.046
m/z	relative intensity
71.011	3
73.028	7
81.034	5
83.012	14
87.007	5
89.023	41
95.013	4
97.028	77
98.031	5
99.043	6
101.024	289
102.027	12
103.029	2
113.024	25
115.040	40
116.043	2
119.035	39
120.039	2
125.024	19
131.035	5
133.049	3
143.035	234
144.038	15
145.039	2
149.045	10
161.046	999
162.049	60
163.050	10
179.056	183
180.059	11
181.061	2
221.067	2
263.077	5
341.107	5
