Mass spectrum: 5'-Deoxyadenosine; MS/MS; ESI-TOF; CE:-22 eV; [M-H]-
Name: 5'-Deoxyadenosine
Name: 5-Deoxyadenosine
Name: 5'-Deoxy-Adenosine
Name: CH3Ado
Class: unknown
Formula: C10H13N5O3
Exact mass: 251.10183927599996
SMILES: CC1OC(C(O)C1(O))N3C=NC=2C(N)=NC=NC=23
InChI: not available
Instrument: micrOTOF-Q
Instrument type: ESI-TOF
Precursor m/z: 250.094
Precursor type: [M-H]-
Base peak: 134.049
m/z	relative intensity
107.035	16
134.047	999
135.048	67
250.090	15
