Mass spectrum: 4-Hydroxyhippuric acid; MS/MS; ESI-TOF; CE:-19 eV; [M-H]-
Name: 4-Hydroxyhippuric acid
Name: 4-Hydroxybenzoylglycine
Name: N-(4-Hydroxybenzoyl)glycine
Name: p-Hydroxyhippuric acid
Class: unknown
Formula: C9H9NO4
Exact mass: 195.05315776799998
SMILES: O=C(O)CNC(=O)C=1C=CC(O)=CC=1
InChI: not available
Instrument: micrOTOF-Q
Instrument type: ESI-TOF
Precursor m/z: 194.041
Precursor type: [M-H]-
Base peak: 93.0306
m/z	relative intensity
74.023	302
75.026	11
93.033	999
94.036	67
100.003	533
101.007	21
102.947	14
123.044	21
132.044	26
148.040	13
150.055	149
151.059	10
194.046	8
