Mass spectrum: Arbutin; ; ESI-TOF; CE:10 eV; [M+H]+
Name: Arbutin
Name: Ursin
Name: Arbutoside
Name: Hydroquinone-beta-D-glucopyranoside
Name: Hydroquinone-O-beta-D-glucopyranoside
Name: p-Arbutin
Name: p-Hydroxyphenyl-beta-D-glucopyranoside
Name: Uvasol
Name: (2R,3S,4S,5R,6S)-2-(Hydroxymethyl)-6-(4-hydroxyphenoxy)oxane-3,4,5-triol
Name: p-Hydroxyphenyl-beta-D-glucoside
Class: unknown
Formula: C12H16O7
Exact mass: 272.089602852
SMILES: OCC2OC(OC1=CC=C(O)C=C1)C(O)C(O)C2(O)
InChI: not available
Instrument: micrOTOF-Q
Instrument type: ESI-TOF
Precursor m/z: 146.046
Precursor type: [M+H]+
Base peak: 163.058
m/z	relative intensity
74.059	7
85.028	89
90.055	9
91.040	8
97.028	21
104.070	72
109.029	9
110.037	16
115.039	53
116.066	9
127.039	85
128.044	6
129.064	5
131.049	9
145.049	589
146.053	44
147.047	15
149.033	16
151.039	10
159.044	43
159.969	6
161.061	11
163.060	999
164.064	65
165.065	13
173.059	8
177.054	51
178.060	5
180.087	28
181.071	68
181.951	9
201.055	28
219.066	25
223.089	5
224.128	12
237.076	35
253.076	6
271.083	12
273.100	8
289.094	42
290.119	20
325.117	346
326.012	8
326.120	44
327.121	11
