Mass spectrum: Cytidine-5'-diphosphocholine; MS/MS; ESI-TOF; CE:24 eV; [M+H]+
Name: Cytidine-5'-diphosphocholine
Name: CDP-choline
Name: Citicoline
Name: Cytidine Diphosphate Choline
Class: unknown
Formula: C14H26N4O11P2
Exact mass: 488.10733091199995
SMILES: C[N+](C)(C)CCOP(=O)([O-])OP(=O)(O)OCC1OC(C(O)C1(O))N2C=CC(N)=NC2(=O)
InChI: not available
Instrument: micrOTOF-Q
Instrument type: ESI-TOF
Precursor m/z: 489.115
Precursor type: [M+H]+
Base peak: 264.042
m/z	relative intensity
112.051	9
184.073	224
185.076	13
226.082	54
227.085	6
246.028	9
264.040	999
265.042	54
266.044	13
277.105	6
280.093	20
360.060	465
361.063	50
362.066	11
378.071	320
379.074	36
380.076	8
489.115	207
490.116	34
491.118	7
