Mass spectrum: 5-Methylcytidine; MS/MS; ESI-TOF; CE:-22 eV; [M-H]-
Name: 5-Methylcytidine
Name: 5-Methyl-cytidine
Class: unknown
Formula: C10H15N3O5
Exact mass: 257.10117058000003
SMILES: CC1=CN(C(=O)N=C1(N))C2OC(CO)C(O)C2(O)
InChI: not available
Instrument: micrOTOF-Q
Instrument type: ESI-TOF
Precursor m/z: 256.094
Precursor type: [M-H]-
Base peak: 123.06
m/z	relative intensity
81.044	117
95.060	273
96.061	16
101.023	17
108.032	59
109.040	49
123.056	999
124.052	642
125.055	36
166.062	251
167.064	22
256.092	25
