Mass spectrum: Daidzein; ; ESI-TOF; CE:10 eV; [M+H]+
Name: Daidzein
Name: 7-Hydroxy-3-(4-hydroxy-phenyl)-4H-1-benzo-pyran-4-one
Name: 4',7-Dihydroxybutisobutflavone
Name: 7-Hydroxy-3-(4-hydroxy-phenyl)-chromone
Class: unknown
Formula: C15H10O4
Exact mass: 254.0579088
SMILES: OC1=CC=C(C=C1)C2=COC=3C=C(O)C=CC=3(C2(=O))
InChI: not available
Instrument: micrOTOF-Q
Instrument type: ESI-TOF
Precursor m/z: 112.051
Precursor type: [M+H]+
Base peak: 255.066
m/z	relative intensity
122.093	2
149.022	2
152.106	1
181.952	2
184.515	2
193.521	1
213.146	1
254.246	3
255.068	999
256.069	181
257.072	21
258.074	2
277.048	54
278.052	9
279.054	1
