Mass spectrum: 1,2,4-Trihydroxybenzol; ; ESI-TOF; CE:10 eV; [M+H]+
Name: 1,2,4-Trihydroxybenzol
Name: Hydroxyhydroquinone
Name: 1,2,4-Benzenetriol,
Name: 1,2,4-Trihydroxybenzene
Name: Hydroxyquinol
Class: unknown
Formula: C6H6O3
Exact mass: 126.03169405199999
SMILES: OC1=CC=C(O)C(O)=C1
InChI: not available
Instrument: micrOTOF-Q
Instrument type: ESI-TOF
Precursor m/z: 109.028
Precursor type: [M+H]+
Base peak: 127.04
m/z	relative intensity
127.039	999
128.042	67
129.044	8
