Mass spectrum: 5-Hydroxy-6-methyluracil; ; ESI-TOF; CE:10 eV; [M-H]-
Name: 5-Hydroxy-6-methyluracil
Class: unknown
Formula: C6H8N2O3
Exact mass: 156.05349211599997
SMILES: [H]OC(=O)C([H])([H])C(O[H])C([H])([H])C([H])([H])C([H])([H])C([H])([H])C([H])([H])C([H])([H])C([H])([H])C([H])([H])C([H])([H])[H]
InChI: not available
Instrument: micrOTOF-Q
Instrument type: ESI-TOF
Precursor m/z: 273.076
Precursor type: [M-H]-
Base peak: 155.044
m/z	relative intensity
96.960	3
112.040	9
137.036	224
138.038	15
146.940	6
155.047	999
156.049	71
157.050	7
180.974	3
199.020	2
206.972	4
333.078	5
