Mass spectrum: 1-Methylnicotinamide; ; ESI-TOF; CE:10 eV; [M+H]+
Name: 1-Methylnicotinamide
Name: 1-Methyl-3-carbamoylpyridinium
Name: 3-Carbamoyl-1-methylpyridinium
Name: 1-Methylnicotinamide chloride
Name: 3-(Aminocarbonyl)-1-methylpyridinium
Name: 3-(Aminocarbonyl)-1-methyl-pyridinium
Name: N(1)-Methylnicotinamide
Name: 3-Carbamoyl-1-methyl-pyridinium
Name: N( 1)-Methylnicotinamide
Name: N(1)-Methylnicotinamide chloride
Name: 1-Methyl-15-pyridine-3-carboxamide
Name: Trigonellinamide
Name: N-Methylnicotinic acid amide chloride
Class: unknown
Formula: C7H9N2O
Exact mass: 137.071487908
SMILES: C[N+]1=CC=CC(=C1)C(N)=O
InChI: not available
Instrument: micrOTOF-Q
Instrument type: ESI-TOF
Precursor m/z: 260.188
Precursor type: [M+H]+
Base peak: 137.072
m/z	relative intensity
94.065	13
110.060	5
136.654	4
137.072	999
138.074	79
139.076	5
