Mass spectrum: Isonicotinicacid; MS/MS; ESI-TOF; CE:10 eV; [M+H]+
Name: Isonicotinicacid
Name: 4-Picolinic acid,pyridine-4-carboxylic acid
Class: unknown
Formula: C6H5NO2
Exact mass: 123.0320284
SMILES: OC(=O)C=1C=CN=CC=1
InChI: not available
Instrument: micrOTOF-Q
Instrument type: ESI-TOF
Precursor m/z: 124.04
Precursor type: [M+H]+
Base peak: 80.0489
m/z	relative intensity
68.052	18
78.035	113
79.043	113
80.051	999
81.054	70
96.045	852
97.048	58
111.032	50
124.039	533
125.042	43
