Mass spectrum: Glucosamine-O-sulfat; ; ESI-TOF; CE:10 eV; [M-H]-
Name: Glucosamine-O-sulfat
Class: unknown
Formula: C6H13NO8S
Exact mass: 259.036187376
SMILES: NC1C(O)OC(COS(=O)(O)=O)C(O)C1(O)
InChI: not available
Instrument: micrOTOF-Q
Instrument type: ESI-TOF
Precursor m/z: 155.047
Precursor type: [M-H]-
Base peak: 258.03
m/z	relative intensity
258.029	999
259.032	81
260.025	64
261.028	5
