Mass spectrum: Mesaconicacid; MS/MS; ESI-TOF; CE:10 eV; [M+H]+
Name: Mesaconicacid
Name: (E)-2-Methylbut-2-enedioic acid
Name: Mesaconate,2-methylfumarate,Mesaconic acid,methylfumaric acid,methylfumarate,
Class: unknown
Formula: C5H6O4
Exact mass: 130.026608672
SMILES: CC(=CC(O)=O)C(O)=O
InChI: not available
Instrument: micrOTOF-Q
Instrument type: ESI-TOF
Precursor m/z: 131.034
Precursor type: [M+H]+
Base peak: 85.0284
m/z	relative intensity
85.029	999
113.023	184
130.065	48
131.034	146
149.045	54
