Mass spectrum: Hexanoylglycine; ; ESI-TOF; CE:10 eV; [M-H]-
Name: Hexanoylglycine
Name: 2-(Hexanoylamino)acetic acid
Name: N-(1-Oxohexyl)-glycine
Name: N-Caproylglycine
Class: unknown
Formula: C8H15NO3
Exact mass: 173.10519334
SMILES: CCCCCC(=O)NCC(O)=O
InChI: not available
Instrument: micrOTOF-Q
Instrument type: ESI-TOF
Precursor m/z: 174.113
Precursor type: [M-H]-
Base peak: 172.094
m/z	relative intensity
74.023	119
75.024	5
128.107	24
146.940	5
172.097	999
173.100	81
174.101	9
