Mass spectrum: Phloridzin; ; ESI-TOF; CE:10 eV; [M-H]-
Name: Phloridzin
Name: Phlorizin,Phlorhizin,Phlorizoside,Phlorrhizin  ,Phlorizine,Floridzin,Phloridzosid,Phlorrhizen
Name: Phloretin 2'-glucoside
Class: unknown
Formula: C21H24O10
Exact mass: 436.13694696799996
SMILES: OCC3OC(OC=2C=C(O)C=C(O)C=2(C(=O)CCC1=CC=C(O)C=C1))C(O)C(O)C3(O)
InChI: not available
Instrument: micrOTOF-Q
Instrument type: ESI-TOF
Precursor m/z: 435.13
Precursor type: [M-H]-
Base peak: 435.133
m/z	relative intensity
112.986	13
146.943	6
180.983	12
248.961	11
273.076	44
274.081	7
316.949	7
435.130	999
436.132	227
437.135	38
438.137	6
471.106	6
481.134	123
482.137	29
483.139	6
503.115	51
504.120	13
