Mass spectrum: 1-Methylxanthine; ; ESI-TOF; CE:10 eV; [M-H]-
Name: 1-Methylxanthine
Class: unknown
Formula: C6H6N4O2
Exact mass: 166.049075432
SMILES: CN1C(=O)NC=2N=CNC=2(C1(=O))
InChI: not available
Instrument: micrOTOF-Q
Instrument type: ESI-TOF
Precursor m/z: 258.027
Precursor type: [M-H]-
Base peak: 165.041
m/z	relative intensity
165.041	999
166.044	80
167.045	7
