Mass spectrum: 2-Phenylacetamide; ; ESI-TOF; CE:10 eV; [M+H]+
Name: 2-Phenylacetamide
Name: 2-Phenyl acetamide
Class: unknown
Formula: C8H9NO
Exact mass: 135.068413908
SMILES: NC(=O)CC=1C=CC=CC=1
InChI: not available
Instrument: micrOTOF-Q
Instrument type: ESI-TOF
Precursor m/z: 136.076
Precursor type: [M+H]+
Base peak: 136.072
m/z	relative intensity
136.076	999
137.079	92
138.081	6
