Mass spectrum: Guanosine-5'-phosphate; MS/MS; ESI-TOF; CE:-26 eV; [M-H]-
Name: Guanosine-5'-phosphate
Name: GMP
Name: Guanosine 5'-monophosphate
Name: Guanylic acid
Name: Guanosine monophosphate
Class: unknown
Formula: C10H14N5O8P
Exact mass: 363.057999038
SMILES: NC=1NC(=O)C=2N=CN(C=2(N=1))C3OC(COP(O)(O)=O)C(O)C3(O)
InChI: not available
Instrument: micrOTOF-Q
Instrument type: ESI-TOF
Precursor m/z: 362.051
Precursor type: [M-H]-
Base peak: 78.9595
m/z	relative intensity
78.958	999
80.962	6
96.968	148
133.015	6
138.980	10
150.041	80
150.980	23
192.990	8
211.001	102
212.005	5
319.044	6
362.048	22
363.049	3
