Mass spectrum: 5'-Deoxyadenosine; ; ESI-TOF; CE:10 eV; [M+H]+
Name: 5'-Deoxyadenosine
Name: 5-Deoxyadenosine
Name: 5'-Deoxy-Adenosine
Name: CH3Ado
Class: unknown
Formula: C10H13N5O3
Exact mass: 251.101839276
SMILES: CC1OC(C(O)C1(O))N3C=NC=2C(N)=NC=NC=23
InChI: not available
Instrument: micrOTOF-Q
Instrument type: ESI-TOF
Precursor m/z: 256.094
Precursor type: [M+H]+
Base peak: 252.112
m/z	relative intensity
113.963	4
114.970	3
119.036	2
128.951	8
131.973	5
135.957	3
136.062	545
136.953	3
137.063	41
138.061	2
141.958	6
144.080	6
145.930	4
146.961	14
149.022	6
153.956	6
158.966	3
159.969	15
161.081	2
162.090	4
163.941	15
176.974	4
177.977	4
179.964	3
181.951	48
182.955	3
186.957	7
204.967	11
224.128	3
233.923	4
252.111	999
253.112	132
254.114	14
