Mass spectrum: Phthalicacid; ; ESI-TOF; CE:10 eV; [M+H]+
Name: Phthalicacid
Name: Phthalate,Phthalic acid,1,2-benzenedicarboxylic acid,Kyselina ftalova,Orthophthalic acid,o-benzenedicarboxylic acid,Sunftal 20,o-phthalic acid,o-dicarboxybenzene,Acide phtalique,Phthalsylure,
Name: CID 1017
Class: unknown
Formula: C8H6O4
Exact mass: 166.026608672
SMILES: OC(=O)C1=CC=CC=C1(C(O)=O)
InChI: not available
Instrument: micrOTOF-Q
Instrument type: ESI-TOF
Precursor m/z: 165.02
Precursor type: [M+H]+
Base peak: 167.035
m/z	relative intensity
167.034	999
168.037	88
169.038	12
