Mass spectrum: 1,6-Anhydro-b-D-glucose; ; ESI-TOF; CE:10 eV; [M+H]+
Name: 1,6-Anhydro-b-D-glucose
Name: Glucosan
Name: 1,6-Anhydro-b-D-glucopyranose
Name: 1,6-Anhydro-beta-D-Glucopyranose
Name: 1,6-Anhydro-beta-D-glucose
Name: 1,6-Anhydro-beta-glucopyranose
Name: 1,6-Anhydro-D-glucose
Name: 1,6-Anhydroglucose
Name: 6,8-Dioxabicyclo[3.2.1]octane b-D-glucopyranose deriv.
Name: Anhydro-D-mannosan
Name: Leucoglucosan
Name: Levoglucosan
Class: unknown
Formula: C6H10O5
Exact mass: 162.05282341999998
SMILES: OC2C(O)C1COC(O1)C2(O)
InChI: not available
Instrument: micrOTOF-Q
Instrument type: ESI-TOF
Precursor m/z: 137.072
Precursor type: [M+H]+
Base peak: 163.06
m/z	relative intensity
85.028	84
86.031	4
91.040	8
97.028	23
109.028	6
127.039	73
128.044	4
145.050	549
146.053	41
147.055	6
149.025	9
163.060	999
164.064	65
165.067	14
185.042	233
186.045	18
189.024	11
189.524	12
190.021	211
190.523	32
191.032	73
191.534	11
192.022	13
263.065	63
263.566	15
270.054	6
270.554	5
271.052	108
271.553	23
272.053	35
272.555	8
273.052	12
325.117	290
326.120	39
327.122	10
