Mass spectrum: Citraconic acid; MS/MS; ESI-TOF; CE:17 eV; [M+H]+
Name: Citraconic acid
Name: 2-Methylmaleate
Name: (2Z)-2-Methyl-2-butenedioic acid
Name: (Z)-2-Methyl-2-butenedioate
Name: (Z)-2-Methyl-2-butenedioic acid
Name: Methylmaleate
Name: Methylmaleic acid
Name: Citraconate
Class: unknown
Formula: C5H6O4
Exact mass: 130.026608672
SMILES: CC(=CC(O)=O)C(O)=O
InChI: not available
Instrument: micrOTOF-Q
Instrument type: ESI-TOF
Precursor m/z: 131.035
Precursor type: [M+H]+
Base peak: 85.0291
m/z	relative intensity
85.028	999
86.031	47
113.024	795
114.027	41
131.036	104
