Mass spectrum: L-Alpha-hydroxy isovalericacid; ; ESI-TOF; CE:10 eV; [M+H]+
Name: L-Alpha-hydroxy isovalericacid
Name: (2S)-2-Hydroxy-3-methylbutanoic acid
Class: unknown
Formula: C5H10O3
Exact mass: 118.06299417999999
SMILES: CC(C)C(O)C(O)=O
InChI: not available
Instrument: micrOTOF-Q
Instrument type: ESI-TOF
Precursor m/z: 119.07
Precursor type: [M+H]+
Base peak: 119.072
m/z	relative intensity
119.070	999
120.074	56
121.075	7
