Mass spectrum: 3-(2-Hydroxyphenyl)propionic acid; ; ESI-TOF; CE:10 eV; [M-H]-
Name: 3-(2-Hydroxyphenyl)propionic acid
Name: 2-Hydroxyhydrocinnamic acid
Name: 2-Hydroxyphenylpropanoate
Name: 2-Hydroxyphenylpropionic acid
Name: 3-(2-Hydroxyphenyl)propanoate
Name: 3-(2-Hydroxyphenyl)propionate
Name: Melilotate
Name: Melilotic acid
Class: unknown
Formula: C9H10O3
Exact mass: 166.06299417999998
SMILES: OC(=O)CCC=1C=CC=CC=1(O)
InChI: not available
Instrument: micrOTOF-Q
Instrument type: ESI-TOF
Precursor m/z: 165.042
Precursor type: [M-H]-
Base peak: 165.051
m/z	relative intensity
106.042	8
119.050	8
121.065	385
122.068	30
123.071	2
135.044	2
138.032	5
146.941	2
147.045	56
148.048	5
165.056	999
166.059	100
167.061	10
