Mass spectrum: Desthiobiotin; ; ESI-TOF; CE:10 eV; [M+H]+
Name: Desthiobiotin
Name: 5-Methyl-2-oxo-4-imidazolidinehexanoic acid
Name: D-Desthiobiotin
Name: Dethiobiotin
Class: unknown
Formula: C10H18N2O3
Exact mass: 214.13174243599997
SMILES: CC1NC(=O)NC1(CCCCCC(O)=O)
InChI: not available
Instrument: micrOTOF-Q
Instrument type: ESI-TOF
Precursor m/z: 215.14
Precursor type: [M+H]+
Base peak: 215.137
m/z	relative intensity
122.096	3
131.975	2
146.960	3
149.022	5
154.123	3
159.969	3
164.551	2
179.119	3
181.951	8
197.129	352
198.132	36
199.134	3
204.969	3
215.140	999
216.143	111
217.144	10
237.121	140
238.125	16
