Mass spectrum: 2,3-Dihydroxybenzoic acid; ; ESI-TOF; CE:10 eV; [M-H]-
Name: 2,3-Dihydroxybenzoic acid
Name: 2,3-Dihydroxybenzoate
Name: 2-Pyrocatechuate
Name: 2-Pyrocatechuic acid
Name: 3-Hydroxysalicylate
Name: 3-Hydroxysalicylic acid
Name: Catechol-3-carboxylate
Name: Catecholcarboxylate
Name: Catecholcarboxylic acid
Name: DHBA
Name: DOBK
Name: o-Pyrocatechuate
Name: o-Pyrocatechuic acid
Name: Pyrocatechuate
Name: Pyrocatechuic acid
Class: unknown
Formula: C7H6O4
Exact mass: 154.026608672
SMILES: OC(=O)C1=CC=CC(O)=C1(O)
InChI: not available
Instrument: micrOTOF-Q
Instrument type: ESI-TOF
Precursor m/z: 157.014
Precursor type: [M-H]-
Base peak: 153.019
m/z	relative intensity
109.029	162
110.031	11
146.938	14
153.019	999
154.022	70
155.022	11
329.026	84
330.028	13
