Mass spectrum: 5-Hydroxymethyluracil; MS/MS; ESI-TOF; CE:-18 eV; [M-H]-
Name: 5-Hydroxymethyluracil
Name: 5-(Hydroxymethyl)pyrimidine-2,4-dione
Name: Uracil-5-methanol
Class: unknown
Formula: C5H6N2O3
Exact mass: 142.03784205199997
SMILES: OCC1=CNC(=O)NC1(=O)
InChI: not available
Instrument: micrOTOF-Q
Instrument type: ESI-TOF
Precursor m/z: 141.03
Precursor type: [M-H]-
Base peak: 141.03
m/z	relative intensity
80.012	147
95.023	107
98.023	60
123.020	296
141.030	999
142.031	57
