Mass spectrum: Naringin; ; ESI-TOF; CE:10 eV; [M+H]+
Name: Naringin
Class: unknown
Formula: C27H32O14
Exact mass: 580.179205704
SMILES: CC5OC(OC4C(O)C(O)C(CO)OC4(OC=1C=C(O)C=2C(=O)CC(OC=2(C=1))C3=CC=C(O)C=C3))C(O)C(O)C5(O)
InChI: not available
Instrument: micrOTOF-Q
Instrument type: ESI-TOF
Precursor m/z: 143.05
Precursor type: [M+H]+
Base peak: 273.072
m/z	relative intensity
85.029	4
107.059	3
122.096	10
128.951	5
129.054	15
146.961	7
147.065	32
149.024	17
153.019	15
159.969	6
163.072	4
163.940	6
165.073	4
171.031	6
181.951	17
186.954	4
197.078	11
201.056	4
203.067	4
204.967	7
224.126	6
257.245	5
272.280	6
273.076	999
274.079	148
275.082	20
309.118	19
315.086	13
339.585	4
361.109	4
362.216	8
373.213	6
384.207	5
401.124	6
417.119	6
419.133	53
420.135	12
435.128	28
436.128	6
581.188	22
582.193	6
