Mass spectrum: L-Allo-threonine; MS/MS; ESI-TOF; CE:10 eV; [M+H]+
Name: L-Allo-threonine
Name: L-Allothreonine,(2S,3S)-2-amino-3-hydroxybutanoate ,(2S,3S)-2-amino-3-hydroxybutanoic acid,Allo-L-threonine
Class: unknown
Formula: C4H9NO3
Exact mass: 119.05824314799999
SMILES: CC(O)C(N)C(O)=O
InChI: not available
Instrument: micrOTOF-Q
Instrument type: ESI-TOF
Precursor m/z: 120.066
Precursor type: [M+H]+
Base peak: 102.055
m/z	relative intensity
74.062	336
84.045	91
102.055	999
103.058	67
120.066	636
121.069	42
