Mass spectrum: N-Methyltryptamine; ; ESI-TOF; CE:10 eV; [M+H]+
Name: N-Methyltryptamine
Name: 3-(2-(Methylamino)ethyl)indole,3-(2-methylaminoethyl)indole,3-(2-[methylamino]ethyl)indole ,Dipterine ,methyltryptamine  ,N-monomethyltryptamine ,N-omega-methyltryptamine ,dl-methyltryptamine
Class: unknown
Formula: C11H14N2
Exact mass: 174.115698448
SMILES: CN2C=C(CCN)C1=CC=CC=C12
InChI: not available
Instrument: micrOTOF-Q
Instrument type: ESI-TOF
Precursor m/z: 175.123
Precursor type: [M+H]+
Base peak: 175.122
m/z	relative intensity
175.123	999
176.126	128
177.130	8
