Mass spectrum: Cytidine-5'-diphosphocholine; ; ESI-TOF; CE:10 eV; [M+H]+
Name: Cytidine-5'-diphosphocholine
Name: CDP-choline
Name: Citicoline
Name: Cytidine Diphosphate Choline
Class: unknown
Formula: C14H26N4O11P2
Exact mass: 488.10733091199995
SMILES: C[N+](C)(C)CCOP(=O)([O-])OP(=O)(O)OCC1OC(C(O)C1(O))N2C=CC(N)=NC2(=O)
InChI: not available
Instrument: micrOTOF-Q
Instrument type: ESI-TOF
Precursor m/z: 269.045
Precursor type: [M+H]+
Base peak: 489.117
m/z	relative intensity
97.029	5
112.051	149
113.053	7
184.073	32
208.072	4
245.062	71
245.564	13
264.039	101
265.042	6
281.027	7
306.047	4
360.060	38
361.063	4
378.070	40
379.073	5
487.484	4
489.115	999
490.116	165
491.118	31
492.121	4
733.174	170
733.674	84
734.176	33
734.676	9
