Mass spectrum: 3-Hydroxy-2-methylbutyric acid; ; ESI-TOF; CE:10 eV; [M+H]+
Name: 3-Hydroxy-2-methylbutyric acid
Class: unknown
Formula: C5H10O3
Exact mass: 118.06299417999999
SMILES: CC(O)C(C)C(O)=O
InChI: not available
Instrument: micrOTOF-Q
Instrument type: ESI-TOF
Precursor m/z: 117.055
Precursor type: [M+H]+
Base peak: 119.072
m/z	relative intensity
119.070	999
120.074	56
121.075	7
