Mass spectrum: 3-Methylglutaconic acid; MS/MS; ESI-TOF; CE:8 eV; [M-H]-
Name: 3-Methylglutaconic acid
Name: 3-Methyl-2-pentenedioic acid
Class: unknown
Formula: C6H8O4
Exact mass: 144.042258736
SMILES: CC(=CC(O)=O)CC(O)=O
InChI: not available
Instrument: micrOTOF-Q
Instrument type: ESI-TOF
Precursor m/z: 143.034
Precursor type: [M-H]-
Base peak: 99.0459
m/z	relative intensity
99.043	999
100.047	58
