Mass spectrum: Phenacetin; MS/MS; ESI-TOF; CE:19 eV; [M+H]+
Name: Phenacetin
Name: Acetophenetidin,p-acetophenetidide,4'-ethoxyacetanilide,1-acetyl-p-phenetidin,
Class: unknown
Formula: C10H13NO2
Exact mass: 179.094628656
SMILES: CCOC=1C=CC(=CC=1)NC(C)=O
InChI: not available
Instrument: micrOTOF-Q
Instrument type: ESI-TOF
Precursor m/z: 180.103
Precursor type: [M+H]+
Base peak: 110.059
m/z	relative intensity
92.050	23
93.048	22
109.052	27
110.061	999
111.057	74
134.061	21
138.091	643
139.094	65
152.071	97
162.091	38
180.102	448
181.106	58
