Mass spectrum: Homogentisic acid; ; ESI-TOF; CE:10 eV; [M-H]-
Name: Homogentisic acid
Name: 2,5-Dihydroxyphenylacetic acid
Name: 2,5-Dihydroxyphenylacetate
Name: Homogentisate
Class: unknown
Formula: C8H8O4
Exact mass: 168.042258736
SMILES: OC(=O)CC=1C=C(O)C=CC=1(O)
InChI: not available
Instrument: micrOTOF-Q
Instrument type: ESI-TOF
Precursor m/z: 151.384
Precursor type: [M-H]-
Base peak: 167.033
m/z	relative intensity
167.035	999
168.038	89
169.040	12
