Mass spectrum: Isohomovanillicacid; MS/MS; ESI-TOF; CE:10 eV; [M-H]-
Name: Isohomovanillicacid
Name: Homoisovanillic acid,4-methoxy-3-hydroxyphenylacetic acid,3-hydroxy-4-methoxyphenylacetic acid,isohomovanillate,Homo-iso-vanillic acid,Homoisovanillate
Class: unknown
Formula: C9H10O4
Exact mass: 182.0579088
SMILES: COC1=CC=C(CC(=O)O)C=C1(O)
InChI: not available
Instrument: micrOTOF-Q
Instrument type: ESI-TOF
Precursor m/z: 181.051
Precursor type: [M-H]-
Base peak: 122.034
m/z	relative intensity
122.037	999
123.038	79
124.016	129
137.052	345
154.027	963
155.031	83
