Mass spectrum: 3,5-Diiodo-L-tyrosine; ; ESI-TOF; CE:10 eV; [M+H]+
Name: 3,5-Diiodo-L-tyrosine
Name: 3,5-Diiodo-L-tyrosine Dihydrate
Name: (2S)-2-Amino-3-(4-hydroxy-3,5-diiodophenyl)propanoic acid
Name: 3,5-Diiodotyrosine
Name: 3,5-Iodo-L-tyrosine
Name: 3,5-L-Diiodotyrosine
Name: 4-Hydroxy-3,5-diiodophenylalanine
Name: DIT
Name: Iodogorgoic acid
Name: L-3,5-Diiodotyrosine
Name: Diiodotyrosine
Name: L-Diiodotyrosine
Class: unknown
Formula: C9H9I2NO3
Exact mass: 432.86718914799997
SMILES: NC(CC1=CC(=C(O)C(=C1)I)I)C(O)=O
InChI: not available
Instrument: micrOTOF-Q
Instrument type: ESI-TOF
Precursor m/z: 431.859
Precursor type: [M+H]+
Base peak: 433.875
m/z	relative intensity
433.874	999
434.878	103
435.880	11
