Mass spectrum: 3-O-Methyl-D-glucopyranose; ; ESI-TOF; CE:10 eV; [M-H]-
Name: 3-O-Methyl-D-glucopyranose
Name: 3-O-Methyl-a-D-glucopyranose
Name: 3-O-Methyl-alpha-D-glucopyranose
Name: 3-O-Methyl-D-Glucose
Name: 3-O-Methylglucose
Class: unknown
Formula: C7H14O6
Exact mass: 194.07903816799998
SMILES: COC1C(O)C(O)OC(CO)C1(O)
InChI: not available
Instrument: micrOTOF-Q
Instrument type: ESI-TOF
Precursor m/z: 165.042
Precursor type: [M-H]-
Base peak: 161.047
m/z	relative intensity
71.012	12
75.007	6
85.028	5
87.007	5
89.022	45
90.025	2
95.010	1
101.024	4
113.024	432
114.028	23
115.029	3
119.034	46
120.037	2
125.024	1
131.035	10
135.036	2
143.034	51
144.037	4
145.048	4
161.046	999
162.049	66
163.051	11
165.055	9
179.056	26
180.059	2
193.071	53
194.074	4
239.076	136
240.080	12
241.082	3
