Mass spectrum: Picolinicacid; ; ESI-TOF; CE:10 eV; [M+H]+
Name: Picolinicacid
Name: a-Picolinic acid,alpha-Picolinic acid,2-Picolinic acid,pyridine-2-carboxylic acid,2-pyridinecarboxylic acid,o-pyridinecarboxylic acid,pyridine-carboxylique-2,alpha-pyridinecarboxylic acid,pyridinecarboxylic acid-(2),2-carboxypyridine,Acide picolique,
Class: unknown
Formula: C6H5NO2
Exact mass: 123.0320284
SMILES: OC(=O)C1CC=CC(=N1)C(O)=O
InChI: not available
Instrument: micrOTOF-Q
Instrument type: ESI-TOF
Precursor m/z: 124.039
Precursor type: [M+H]+
Base peak: 124.039
m/z	relative intensity
78.034	62
96.044	351
97.047	22
106.028	35
124.039	999
125.042	70
126.045	6
146.021	31
