Mass spectrum: Barbituric acid; MS/MS; ESI-TOF; CE:-18 eV; [M-H]-
Name: Barbituric acid
Name: Barbiturate
Name: 1,3-Diazinane-2,4,6-trione
Name: 2,4,6-Trioxotetrahydro-2H-pyrimidin-1-ide
Name: Malonylurea
Class: unknown
Formula: C4H4N2O3
Exact mass: 128.022191988
SMILES: O=C1CC(=O)NC(=O)N1
InChI: not available
Instrument: micrOTOF-Q
Instrument type: ESI-TOF
Precursor m/z: 127.015
Precursor type: [M-H]-
Base peak: 127.017
m/z	relative intensity
84.008	183
85.007	7
127.014	999
128.018	53
129.019	10
