Mass spectrum: (DL) beta-leucine; ; ESI-TOF; CE:10 eV; [M+H]+
Name: (DL) beta-leucine
Name: 2-Amino-4-mercaptobutyric acid
Name: 2-Amino-4-mercapto-DL-butyrate
Name: 2-Amino-4-mercapto-DL-butyric acid
Name: 2-Amino-4-sulfanyl-butanoic acid
Name: (DL) homocysteine
Name: DL-Homocysteine
Class: unknown
Formula: C6H13NO2
Exact mass: 131.094628656
SMILES: CC(C)C(N)CC(=O)O
InChI: not available
Instrument: micrOTOF-Q
Instrument type: ESI-TOF
Precursor m/z: 146.994
Precursor type: [M+H]+
Base peak: 136.041
m/z	relative intensity
73.010	8
88.037	13
90.037	432
91.039	22
92.032	22
100.025	5
101.005	3
102.039	29
116.052	14
118.032	113
119.030	7
120.032	7
130.031	3
134.027	134
135.029	7
135.633	3
136.042	999
137.044	53
138.039	49
139.042	3
148.042	143
149.037	10
150.038	9
158.025	64
159.028	4
160.021	3
162.058	60
163.061	5
269.064	691
270.066	71
271.061	62
272.063	6
291.046	159
292.048	17
293.044	17
