Mass spectrum: N-Acetylcarnosine; ; ESI-TOF; CE:10 eV; [M+H]+
Name: N-Acetylcarnosine
Class: unknown
Formula: C11H16N4O4
Exact mass: 268.117154992
SMILES: CN2C=NC=1NC(=O)NC(=O)C=12
InChI: not available
Instrument: micrOTOF-Q
Instrument type: ESI-TOF
Precursor m/z: 269.124
Precursor type: [M+H]+
Base peak: 269.127
m/z	relative intensity
97.967	11
106.990	10
110.072	16
113.963	12
118.087	7
119.049	8
125.001	11
128.949	20
131.973	16
136.953	9
137.025	13
141.959	19
145.931	12
146.960	17
149.023	48
150.018	9
156.076	62
159.968	37
161.064	8
161.967	8
163.941	32
176.010	8
177.975	8
181.074	17
181.951	68
186.957	14
201.054	13
204.968	11
210.084	8
223.117	10
224.127	19
227.113	42
251.113	16
269.124	999
270.127	129
271.130	17
