Mass spectrum: 3-Hydroxysebacic acid; ; ESI-TOF; CE:10 eV; [M+H]+
Name: 3-Hydroxysebacic acid
Name: Hydroxy-decanedioic acid
Class: unknown
Formula: C10H18O5
Exact mass: 218.11542367599998
SMILES: OC(=O)CCCCCCC(O)CC(O)=O
InChI: not available
Instrument: micrOTOF-Q
Instrument type: ESI-TOF
Precursor m/z: 201.112
Precursor type: [M+H]+
Base peak: 241.108
m/z	relative intensity
91.0545	21
93.0695	11
95.0839	26
101.0233	12
109.1006	21
119.0856	105
120.0883	12
137.0956	252
138.0982	30
147.0800	39
149.0236	20
155.1056	83
156.1082	10
165.0907	206
166.0945	24
181.9509	19
183.1015	333
184.1049	36
185.1135	10
191.1068	17
201.1124	676
202.1165	73
203.1179	9
209.1187	9
219.1231	358
220.1268	42
241.1056	999
242.1093	102
243.1102	16
285.1338	53
