Mass spectrum: 2-(4-Hydroxyphenyl)propionic acid; ; ESI-TOF; CE:10 eV; [M+H]+
Name: 2-(4-Hydroxyphenyl)propionic acid
Class: unknown
Formula: C9H10O3
Exact mass: 166.06299417999998
SMILES: CC(C(O)=O)C=1C=CC(O)=CC=1
InChI: not available
Instrument: micrOTOF-Q
Instrument type: ESI-TOF
Precursor m/z: 91.0546
Precursor type: [M+H]+
Base peak: 121.064
m/z	relative intensity
77.038	7
91.054	30
92.058	3
93.070	35
94.072	3
95.049	15
102.046	3
103.054	53
104.058	5
105.044	8
120.703	2
121.065	999
122.068	90
123.070	5
137.059	1
149.051	3
166.554	2
167.070	738
168.073	72
169.075	8
185.081	79
186.084	8
189.052	218
190.055	20
191.058	2
