Mass spectrum: 5-Hydroxyanthranilic acid; ; ESI-TOF; CE:10 eV; [M-H]-
Name: 5-Hydroxyanthranilic acid
Name: 2-Amino-5-hydroxybenzoate
Name: 2-Amino-5-hydroxybenzoicacid
Class: unknown
Formula: C7H7NO3
Exact mass: 153.042593084
SMILES: NC=1C=CC(O)=CC=1(C(=O)O)
InChI: not available
Instrument: micrOTOF-Q
Instrument type: ESI-TOF
Precursor m/z: 152.036
Precursor type: [M-H]-
Base peak: 152.036
m/z	relative intensity
152.035	999
153.038	81
154.040	9
