Mass spectrum: 3-Phenylpropionylglycine; ; ESI-TOF; CE:10 eV; [M-H]-
Name: 3-Phenylpropionylglycine
Name: (3-Phenylpropionyl)glycine ,(3-phenyl-propionylamino)-acetate ,(3-phenyl-propionylamino)-acetic acid ,N-(3-phenylpropanoyl)glycine ,N-(3-phenyl-propionyl)-glycine ,phenylpropionylglycine,,
Class: unknown
Formula: C11H13O3N
Exact mass: 207.089543276
SMILES: O=C(O)CNCCC(=O)C=1C=CC=CC=1
InChI: not available
Instrument: micrOTOF-Q
Instrument type: ESI-TOF
Precursor m/z: 206.083
Precursor type: [M-H]-
Base peak: 206.081
m/z	relative intensity
206.082	999
207.086	125
208.089	13
