Mass spectrum: Desthiobiotin; ; ESI-TOF; CE:10 eV; [M-H]-
Name: Desthiobiotin
Name: 5-Methyl-2-oxo-4-imidazolidinehexanoic acid
Name: D-Desthiobiotin
Name: Dethiobiotin
Class: unknown
Formula: C10H18N2O3
Exact mass: 214.13174243599997
SMILES: CC1NC(=O)NC1(CCCCCC(O)=O)
InChI: not available
Instrument: micrOTOF-Q
Instrument type: ESI-TOF
Precursor m/z: 215.14
Precursor type: [M-H]-
Base peak: 213.124
m/z	relative intensity
112.986	2
169.134	7
170.119	9
213.125	999
214.126	115
215.129	11
