Mass spectrum: 7,8-Dihydrobiopterin; ; ESI-TOF; CE:10 eV; [M-H]-
Name: 7,8-Dihydrobiopterin
Name: 7,8-Dihydrobiopterin
Class: unknown
Formula: C9H13N5O3
Exact mass: 239.10183927600002
SMILES: CC(O)C(O)C=1CNC=2NC(N)=NC(=O)C=2(N=1)
InChI: not available
Instrument: micrOTOF-Q
Instrument type: ESI-TOF
Precursor m/z: 194.068
Precursor type: [M-H]-
Base peak: 194.071
m/z	relative intensity
83.036	5
88.988	6
96.958	6
115.004	7
124.051	4
130.993	3
133.051	6
138.041	10
149.046	4
150.042	6
151.061	14
152.048	8
164.057	6
166.073	65
167.073	5
176.058	105
177.052	13
178.038	23
179.042	7
180.052	13
192.051	8
194.068	999
195.069	87
196.060	8
202.072	5
206.070	4
208.048	7
210.064	5
221.090	29
222.092	4
236.078	14
238.094	784
239.096	88
240.099	10
