Mass spectrum: N-Acetylisatin; ; ESI-TOF; CE:10 eV; [M+H]+
Name: N-Acetylisatin
Name: 1-Acetylisatin
Name: Acetylisatin
Name: 1-Acetyl-indole-2,3-dione
Name: D: 11321
Class: unknown
Formula: C10H7NO3
Exact mass: 189.04259308399998
SMILES: CC(=O)N2C(=O)C(=O)C=1C=CC=CC=12
InChI: not available
Instrument: micrOTOF-Q
Instrument type: ESI-TOF
Precursor m/z: 273.243
Precursor type: [M+H]+
Base peak: 208.064
m/z	relative intensity
190.050	999
191.053	114
192.055	12
