Mass spectrum: Gly-pro; ; ESI-TOF; CE:10 eV; [M+H]+
Name: Gly-pro
Name: Glycylproline
Name: 1-Glycyl-L-Proline
Name: Glycyl-L-proline
Name: N-Glycyl-L-proline
Name: 1-(2-Aminoacetyl)pyrrolidine-2-carboxylic acid
Name: 1-Glycyl-(9CI)L-Proline
Class: unknown
Formula: C7H12N2O3
Exact mass: 172.08479224399997
SMILES: NCC(=O)N1CCCC1(C(O)=O)
InChI: not available
Instrument: micrOTOF-Q
Instrument type: ESI-TOF
Precursor m/z: 171.078
Precursor type: [M+H]+
Base peak: 173.091
m/z	relative intensity
173.092	999
174.095	86
175.097	9
