Mass spectrum: 2,5-Furandicarboxylic acid; ; ESI-TOF; CE:10 eV; [M+H]+
Name: 2,5-Furandicarboxylic acid
Name: 2,5-Furandicarboxylate
Name: 2, 5-Furandicarboxylic acid
Name: Dehydromucate
Name: Dehydromucic acid
Name: Furan 2,5-dicarboxylic acid
Name: Furan 2,5-dicarboxylate
Name: Furan-2,5-dicarboxylate
Name: Furane-a,a'-dicarboxylate
Name: Furane-a,a'-dicarboxylic acid
Name: Furane-alpha,alpha'-dicarboxylic acid
Class: unknown
Formula: C6H4O5
Exact mass: 156.00587322799998
SMILES: OC(=O)C1=CC=C(O1)C(O)=O
InChI: not available
Instrument: micrOTOF-Q
Instrument type: ESI-TOF
Precursor m/z: 139.003
Precursor type: [M+H]+
Base peak: 139
m/z	relative intensity
95.013	30
123.008	8
138.579	2
139.003	999
140.006	65
141.014	17
149.024	6
157.013	558
158.016	36
159.020	7
175.025	788
176.028	49
177.029	10
