Mass spectrum: 2-Deoxyguanosine; ; ESI-TOF; CE:10 eV; [M+H]+
Name: 2-Deoxyguanosine
Name: Guanine deoxy nucleoside
Name: Desoxyguanosine
Name: Guanine deoxyriboside
Name: 2-Amino-9-(2-deoxy-9-beta-D-ribofuranosyl)-9H-purin-6-ol,dG,9-(2-Deoxy-b-D-erythro-pentofuranosyl)guanine
Name: 2-Amino-9-[(2R,4R,5S)-4-hydroxy-5-(hydroxymethyl)oxolan-2-yl]-3H-purin-6-one
Name: 2-Amino-9-[4-hydroxy-5-(hydroxymethyl)oxolan-2-yl]-3H-purin-6-one
Name: 9-(2-Deoxy-b-D-erythro-pentofuranosyl)-guanine
Name: 9-(2-Deoxy-beta-D-ribofuranosyl)guanine
Name: Deoxyguanosine
Name: 2'-Deoxyguanosine
Name: 2'-Deoxy-guanosine
Name: 2'-Deoxyguanosine monohydrate
Name: Guanine-2'-deoxyriboside
Class: unknown
Formula: C10H13N5O4
Exact mass: 267.096753896
SMILES: NC=2NC(=O)C=3N=CN(C1CC(O)C(CO)O1)C=3(N=2)
InChI: not available
Instrument: micrOTOF-Q
Instrument type: ESI-TOF
Precursor m/z: 268.105
Precursor type: [M+H]+
Base peak: 152.056
m/z	relative intensity
117.055	9
135.029	3
146.961	2
149.022	3
151.594	2
152.057	999
153.056	66
154.058	3
159.969	2
181.952	7
204.964	2
224.127	2
268.105	114
269.108	15
270.111	2
