Mass spectrum: Nicotinamide-N-oxide; MS/MS; ESI-TOF; CE:27 eV; [M+H]+
Name: Nicotinamide-N-oxide
Name: 1-Oxidopyridin-1-ium-3-carboxamide
Class: unknown
Formula: C6H6N2O2
Exact mass: 138.042927432
SMILES: NC(=O)C=1C=CC=[N+]([O-])C=1
InChI: not available
Instrument: micrOTOF-Q
Instrument type: ESI-TOF
Precursor m/z: 139.05
Precursor type: [M+H]+
Base peak: 106.027
m/z	relative intensity
78.035	331
79.043	665
80.046	45
94.031	82
95.036	173
96.044	202
105.021	78
106.029	999
107.032	83
112.040	215
122.031	45
139.049	170
