Mass spectrum: Ectoine; MS/MS; ESI-TOF; CE:18 eV; [M+H]+
Name: Ectoine
Name: (S)-2-Methyl-1,4,5,6-tetrahydropyrimidine-4-carboxylic acid
Name: THP(B)
Class: unknown
Formula: C6H10N2O2
Exact mass: 142.07422756
SMILES: CC=1NCCC(N=1)C(O)=O
InChI: not available
Instrument: micrOTOF-Q
Instrument type: ESI-TOF
Precursor m/z: 143.082
Precursor type: [M+H]+
Base peak: 97.0762
m/z	relative intensity
68.049	50
84.044	5
97.076	999
98.079	63
101.071	56
102.061	7
143.082	474
144.084	40
