Mass spectrum: Phthalicacid; MS/MS; ESI-TOF; CE:10 eV; [M+H]+
Name: Phthalicacid
Name: Phthalate,Phthalic acid,1,2-benzenedicarboxylic acid,Kyselina ftalova,Orthophthalic acid,o-benzenedicarboxylic acid,Sunftal 20,o-phthalic acid,o-dicarboxybenzene,Acide phtalique,Phthalsylure,
Name: CID 1017
Class: unknown
Formula: C8H6O4
Exact mass: 166.026608672
SMILES: OC(=O)C1=CC=CC=C1(C(O)=O)
InChI: not available
Instrument: micrOTOF-Q
Instrument type: ESI-TOF
Precursor m/z: 167.034
Precursor type: [M+H]+
Base peak: 149.022
m/z	relative intensity
93.033	16
121.030	176
149.023	999
150.026	99
167.034	85
