Mass spectrum: 3-Phenylpropionylglycine; ; ESI-TOF; CE:10 eV; [M-H]-
Name: 3-Phenylpropionylglycine
Name: (3-Phenylpropionyl)glycine ,(3-phenyl-propionylamino)-acetate ,(3-phenyl-propionylamino)-acetic acid ,N-(3-phenylpropanoyl)glycine ,N-(3-phenyl-propionyl)-glycine ,phenylpropionylglycine,,
Class: unknown
Formula: C11H13O3N
Exact mass: 207.089543276
SMILES: O=C(O)CNCCC(=O)C=1C=CC=CC=1
InChI: not available
Instrument: micrOTOF-Q
Instrument type: ESI-TOF
Precursor m/z: 218.14
Precursor type: [M-H]-
Base peak: 206.084
m/z	relative intensity
74.023	62
75.026	2
112.986	3
146.943	2
162.092	31
163.096	4
180.980	2
206.083	999
207.085	118
208.087	12
274.069	15
275.072	2
