Mass spectrum: L-Allo-threonine; ; ESI-TOF; CE:10 eV; [M-H]-
Name: L-Allo-threonine
Name: L-Allothreonine,(2S,3S)-2-amino-3-hydroxybutanoate ,(2S,3S)-2-amino-3-hydroxybutanoic acid,Allo-L-threonine
Class: unknown
Formula: C4H9NO3
Exact mass: 119.05824314799999
SMILES: CC(O)C(N)C(O)=O
InChI: not available
Instrument: micrOTOF-Q
Instrument type: ESI-TOF
Precursor m/z: 120.066
Precursor type: [M-H]-
Base peak: 118.052
m/z	relative intensity
72.008	18
74.024	64
118.051	999
119.054	50
120.055	8
175.071	3
182.020	4
219.098	17
232.004	3
237.109	14
245.096	3
259.090	28
261.066	13
281.073	7
290.019	8
291.025	12
