Mass spectrum: 2-Hydroxysebacic acid; ; ESI-TOF; CE:10 eV; [M+H]+
Name: 2-Hydroxysebacic acid
Name: 2-Hydroxy-decandioate
Name: 2-Hydroxy-decandioic acid
Name: 2-Hydroxydecanedioate
Name: 2-Hydroxy-decanedioic acid
Name: 2-Hydroxysebacate
Name: a-Hydroxysebasate
Name: a-Hydroxysebasic acid
Name: Alpha-hydroxysebasate
Name: Alpha-hydroxysebasic acid
Class: unknown
Formula: C10H18O5
Exact mass: 218.115423676
SMILES: O=C(O)CCCCCCCC(O)C(=O)O
InChI: not available
Instrument: micrOTOF-Q
Instrument type: ESI-TOF
Precursor m/z: 217.109
Precursor type: [M+H]+
Base peak: 219.123
m/z	relative intensity
219.123	999
220.126	112
221.128	16
222.131	1
