Mass spectrum: Daidzein; MS/MS; ESI-TOF; CE:-37 eV; [M-H]-
Name: Daidzein
Name: 7-Hydroxy-3-(4-hydroxy-phenyl)-4H-1-benzo-pyran-4-one
Name: 4',7-Dihydroxybutisobutflavone
Name: 7-Hydroxy-3-(4-hydroxy-phenyl)-chromone
Class: unknown
Formula: C15H10O4
Exact mass: 254.0579088
SMILES: OC1=CC=C(C=C1)C2=COC=3C=C(O)C=CC=3(C2(=O))
InChI: not available
Instrument: micrOTOF-Q
Instrument type: ESI-TOF
Precursor m/z: 253.049
Precursor type: [M-H]-
Base peak: 133.029
m/z	relative intensity
89.037	52
91.017	731
92.022	51
117.033	110
132.021	555
133.029	999
134.032	101
135.009	346
153.020	212
168.058	51
169.064	171
180.057	238
181.064	101
182.041	58
183.046	87
195.044	201
196.051	288
197.059	233
208.051	584
209.058	367
210.049	52
223.039	514
224.045	567
225.051	235
252.041	80
253.048	774
254.051	107
