Mass spectrum: Isobutyrylcarnitine; ; ESI-TOF; CE:10 eV; [M+H]+
Name: Isobutyrylcarnitine
Name: Isobutyryl-1-carnitine,isobutyryl-carnitine,isobutyryl-L-carnitine,iso-butyryl-L(-)-carnitin,,
Class: unknown
Formula: C11H21NO4
Exact mass: 231.147058152
SMILES: CC(C)C(=O)OC(CC(=O)[O-])C[N+](C)(C)C
InChI: not available
Instrument: micrOTOF-Q
Instrument type: ESI-TOF
Precursor m/z: 230.139
Precursor type: [M+H]+
Base peak: 232.155
m/z	relative intensity
85.0268	11
124.0385	5
131.9738	4
144.0856	3
146.9602	7
149.0225	10
159.9688	6
163.9421	3
173.0800	30
181.9516	19
204.9679	5
224.1267	5
232.1553	999
233.1579	112
234.1596	13
