Mass spectrum: Gentisic acid; MS/MS; ESI-TOF; CE:-18 eV; [M-H]-
Name: Gentisic acid
Name: 2,5-Dihydroxybenzoate
Name: 2,5-Dioxybenzoate
Name: 2,5-Dioxybenzoic acid
Name: 5-Hydroxysalicylic acid
Name: Carboxyhydroquinone
Name: Gentisate
Name: Hydroquinonecarboxylic acid
Class: unknown
Formula: C7H6O4
Exact mass: 154.026608672
SMILES: OC1=CC=C(O)C(=C1)C(O)=O
InChI: not available
Instrument: micrOTOF-Q
Instrument type: ESI-TOF
Precursor m/z: 153.02
Precursor type: [M-H]-
Base peak: 108.019
m/z	relative intensity
81.033	29
85.028	28
95.013	34
108.021	999
109.029	642
110.031	45
113.024	6
123.008	32
153.019	47
