Mass spectrum: Ferulicacid; MS/MS; ESI-TOF; CE:19 eV; [M+H]+
Name: Ferulicacid
Name: Ferulate,4-hydroxy-3-methoxycinnamic acid,3-methoxy-4-hydroxy-trans-cinnamate,(2E)-3-(4-hydroxy-3-methoxyphenyl)prop-2-enoic acid ,3-(4-hydroxy-3-methoxy-phenyl)prop-2-enoic acid,trans-4-hydroxy-3-methoxycinnamic acid
Class: unknown
Formula: C10H10O4
Exact mass: 194.0579088
SMILES: COC1=CC(C=CC(O)=O)=CC=C1(O)
InChI: not available
Instrument: micrOTOF-Q
Instrument type: ESI-TOF
Precursor m/z: 177.054
Precursor type: [M+H]+
Base peak: 117.031
m/z	relative intensity
89.039	418
117.034	999
118.037	115
134.037	218
135.044	119
145.029	750
146.033	87
149.061	493
150.064	72
177.056	157
