Mass spectrum: Propionylcarnitine; ; ESI-TOF; CE:10 eV; [M+H]+
Name: Propionylcarnitine
Name: Propionyl carnitine  ,L-propionylcarnitine  ,1-propanaminium, 3-carboxy-N,N,N-trimethyl-2-(1-oxopropoxy)-, inner salt,3-carboxy-N,N,N-trimethyl-2-(1-oxopropoxy)-1-propanaminium inner salt,O-propionylcarnitine,propionyl-L-carnitine,,
Class: unknown
Formula: C10H19NO4
Exact mass: 217.13140808799997
SMILES: CCC(=O)OC(CC(=O)[O-])C[N+](C)(C)C
InChI: not available
Instrument: micrOTOF-Q
Instrument type: ESI-TOF
Precursor m/z: 218.14
Precursor type: [M+H]+
Base peak: 218.138
m/z	relative intensity
218.139	999
219.142	116
220.143	14
