Mass spectrum: Mesaconicacid; MS/MS; ESI-TOF; CE:10 eV; [M-H]-
Name: Mesaconicacid
Name: (E)-2-Methylbut-2-enedioic acid
Name: Mesaconate,2-methylfumarate,Mesaconic acid,methylfumaric acid,methylfumarate,
Class: unknown
Formula: C5H6O4
Exact mass: 130.026608672
SMILES: CC(=CC(O)=O)C(O)=O
InChI: not available
Instrument: micrOTOF-Q
Instrument type: ESI-TOF
Precursor m/z: 129.02
Precursor type: [M-H]-
Base peak: 85.0304
m/z	relative intensity
85.028	999
86.032	68
87.043	64
129.019	373
130.023	35
131.034	82
