Mass spectrum: 3-Methylglutaric acid; ; ESI-TOF; CE:10 eV; [M+H]+
Name: 3-Methylglutaric acid
Class: unknown
Formula: C6H10O4
Exact mass: 146.0579088
SMILES: CC(CC(O)=O)CC(O)=O
InChI: not available
Instrument: micrOTOF-Q
Instrument type: ESI-TOF
Precursor m/z: 145.05
Precursor type: [M+H]+
Base peak: 147.061
m/z	relative intensity
83.048	60
101.059	557
102.063	37
129.054	719
130.058	49
147.065	999
148.068	74
149.026	31
169.047	728
170.050	46
317.084	51
344.041	16
345.050	16
346.039	205
347.046	270
348.048	42
349.060	64
351.044	19
