Mass spectrum: Cinnamic acid ethyl ester; ; ESI-TOF; CE:10 eV; [M+H]+
Name: Cinnamic acid ethyl ester
Class: unknown
Formula: C11H12O2
Exact mass: 176.083729624
SMILES: CCOC(=O)C=CC1=CC=CC=C1
InChI: not available
Instrument: micrOTOF-Q
Instrument type: ESI-TOF
Precursor m/z: 203.082
Precursor type: [M+H]+
Base peak: 177.088
m/z	relative intensity
177.091	999
178.094	120
179.098	11
