Mass spectrum: Pimelicacid; MS/MS; ESI-TOF; CE:10 eV; [M-H]-
Name: Pimelicacid
Name: Heptanedioic acid,6-carboxyhexanoate,Pimelate,Pimelic acid
Class: unknown
Formula: C7H12O4
Exact mass: 160.073558864
SMILES: OC(=O)CCCCCC(O)=O
InChI: not available
Instrument: micrOTOF-Q
Instrument type: ESI-TOF
Precursor m/z: 159.067
Precursor type: [M-H]-
Base peak: 97.0674
m/z	relative intensity
95.050	460
96.052	24
97.065	999
98.069	61
115.077	353
116.079	27
141.055	42
159.066	113
