Mass spectrum: R-Adrenaline; MS/MS; ESI-TOF; CE:10 eV; [M+H]+
Name: R-Adrenaline
Name: L-Adrenaline,(R)-(-)-Adrenaline;,(R)-(-)-Epinephrine;,(R)-(-)-Epirenamine;,(R)-(-)-Adnephrine;,4-[(1R)-1-hydroxy-2-(methylamino)ethyl]-1,2-benzenediol,adrenaline-R,Epinephrine,(-)-3,4-dihydroxy-alpha-((methylamino)methyl)-benzyl alcohol,(-)-Adrenaline,4-(1-hydroxy-2-methylamino-ethyl)benzene-1,2-diol
Class: unknown
Formula: C9H13NO3
Exact mass: 183.089543276
SMILES: CNCC(O)C1=CC=C(O)C(O)=C1
InChI: not available
Instrument: micrOTOF-Q
Instrument type: ESI-TOF
Precursor m/z: 184.097
Precursor type: [M+H]+
Base peak: 166.085
m/z	relative intensity
107.049	274
120.079	131
135.043	178
148.075	110
151.062	154
152.070	232
166.086	999
167.089	108
180.067	251
