Mass spectrum: 2-Keto-D-gluconic acid; MS/MS; ESI-TOF; CE:-19 eV; [M-H]-
Name: 2-Keto-D-gluconic acid
Name: D-Arabino-2-hexulopyranosonic acid hemicalcium salt hydrate
Name: 2-Keto-D-gluconic acid hemicalcium salt hydrate
Name: 2-Oxogluconic acid
Name: Alpha-D-Arabino-2-hexulosonic acid
Name: 2-Dehydro-D-gluconic acid
Name: Calcium 2-keto-D-gluconate
Name: D-Arabino-hex-2-ulosonic acid
Class: unknown
Formula: C6H10O7
Exact mass: 194.04265266
SMILES: OCC(O)C(O)C(O)C(=O)C(O)=O
InChI: not available
Instrument: micrOTOF-Q
Instrument type: ESI-TOF
Precursor m/z: 193.035
Precursor type: [M-H]-
Base peak: 103.004
m/z	relative intensity
71.013	29
85.028	21
89.023	42
103.003	999
104.006	40
193.036	10
