Mass spectrum: Phenylethylamine; MS/MS; ESI-TOF; CE:17 eV; [M+H]+
Name: Phenylethylamine
Name: 2-Phenethylamine
Name: 2-Phenylethylamine
Name: Benzeneethanamine
Name: Beta-aminoethylbenzene
Name: Beta-phenylethylamine
Name: Phenethylamine
Class: unknown
Formula: C8H11N
Exact mass: 121.08914935199999
SMILES: NCCC=1C=CC=CC=1
InChI: not available
Instrument: micrOTOF-Q
Instrument type: ESI-TOF
Precursor m/z: 122.096
Precursor type: [M+H]+
Base peak: 105.068
m/z	relative intensity
77.037	14
79.054	97
95.049	26
103.054	70
104.057	8
105.069	999
106.073	105
