Mass spectrum: N-Methyltyramine; MS/MS; ESI-TOF; CE:11 eV; [M+H]+
Name: N-Methyltyramine
Name: Methyl-4-tyramine,4-hydroxy-N-methylphenethylamine,p-(2-methylaminoethyl)phenol ,para-(2-methylaminoethyl)phenol ,4-[2-(methylamino)ethyl]phenol
Class: unknown
Formula: C9H13NO
Exact mass: 151.099714036
SMILES: CNCCC=1C=CC(O)=CC=1
InChI: not available
Instrument: micrOTOF-Q
Instrument type: ESI-TOF
Precursor m/z: 121.065
Precursor type: [M+H]+
Base peak: 121.062
m/z	relative intensity
77.040	31
91.055	131
93.070	187
94.073	15
95.049	59
103.054	251
104.057	21
105.045	51
121.065	999
122.068	85
