Mass spectrum: Meso-tartaricacid; ; ESI-TOF; CE:10 eV; [M-H]-
Name: Meso-tartaricacid
Name: (2R,3S)-2,3-Dihydroxybutanedioic acid
Name: Meso-Tartrate,Erythraric acid,(2R,3S)-Tartaric acid,(2R,3S)-2,3-dihydroxysuccinic acid
Class: unknown
Formula: C4H6O6
Exact mass: 150.016437912
SMILES: OC(=O)C(O)C(O)C(O)=O
InChI: not available
Instrument: micrOTOF-Q
Instrument type: ESI-TOF
Precursor m/z: 129.02
Precursor type: [M-H]-
Base peak: 149.006
m/z	relative intensity
72.992	15
87.008	83
88.011	2
103.003	33
104.006	1
105.018	12
124.991	1
130.998	17
146.939	2
149.010	999
150.013	51
151.014	15
