Mass spectrum: 5-Aminolevulinic acid; MS/MS; ESI-TOF; CE:17 eV; [M+H]+
Name: 5-Aminolevulinic acid
Name: 5-Amino-4-oxopentanoate
Name: 2-Amino-Levulinic acid
Name: 5-Amino-4-oxovaleric acid
Name: 5-Aminolevulinate
Name: Aminolevulinic acid
Name: Delta-aminolevulinic acid
Class: unknown
Formula: C5H9NO3
Exact mass: 131.05824314799997
SMILES: NCC(=O)CCC(O)=O
InChI: not available
Instrument: micrOTOF-Q
Instrument type: ESI-TOF
Precursor m/z: 132.066
Precursor type: [M+H]+
Base peak: 86.0617
m/z	relative intensity
68.049	94
72.043	66
73.028	65
86.060	999
87.061	34
96.045	118
97.029	45
114.055	403
