Mass spectrum: Guanidinopropionic acid; MS/MS; ESI-TOF; CE:18 eV; [M+H]+
Name: Guanidinopropionic acid
Name: 3-Carbamimidamidopropanoic acid
Name: 3-Guanidinopropanoate
Name: 3-Guanidinopropanoic acid
Name: 3-Guanidinopropionic acid
Name: Beta-guanadinopropionate
Name: Beta-guanidinopropionic acid
Name: N-(Aminoiminomethyl)-beta-alanine
Class: unknown
Formula: C4H9N3O2
Exact mass: 131.069476528
SMILES: NC(=N)NCCC(O)=O
InChI: not available
Instrument: micrOTOF-Q
Instrument type: ESI-TOF
Precursor m/z: 132.078
Precursor type: [M+H]+
Base peak: 72.0544
m/z	relative intensity
72.054	999
73.034	73
86.034	61
90.055	492
91.057	23
97.040	45
98.026	17
114.066	311
115.051	332
116.050	18
132.077	690
133.079	44
