Mass spectrum: Methyl-b-D-galactopyranoside; ; ESI-TOF; CE:10 eV; [M-H]-
Name: Methyl-b-D-galactopyranoside
Name: Methyl b-D-galactoside
Class: unknown
Formula: C7H14O6
Exact mass: 194.07903816799998
SMILES: COC1OC(CO)C(O)C(O)C1(O)
InChI: not available
Instrument: micrOTOF-Q
Instrument type: ESI-TOF
Precursor m/z: 149.01
Precursor type: [M-H]-
Base peak: 193.073
m/z	relative intensity
75.007	14
85.028	4
89.022	15
101.023	43
102.051	7
113.021	10
118.050	5
122.026	4
129.020	10
143.035	5
161.045	9
165.040	4
171.048	6
179.055	15
193.071	999
194.074	70
195.073	17
205.036	18
213.078	11
229.047	12
231.045	5
235.027	9
237.060	13
239.076	510
240.079	41
241.080	10
