Mass spectrum: D-Lyxose; ; ESI-TOF; CE:10 eV; [M-H]-
Name: D-Lyxose
Name: D-Lyx
Name: D-Lyxo-pentose
Class: unknown
Formula: C5H10O5
Exact mass: 150.05282341999998
SMILES: OC1COC(O)C(O)C1(O)
InChI: not available
Instrument: micrOTOF-Q
Instrument type: ESI-TOF
Precursor m/z: 168.007
Precursor type: [M-H]-
Base peak: 149.043
m/z	relative intensity
71.012	22
89.023	284
90.028	13
101.024	14
104.034	6
113.021	16
118.049	3
119.035	19
127.002	3
131.035	69
132.038	4
135.029	4
146.947	4
149.046	999
150.048	60
151.053	12
193.036	5
195.050	52
196.053	4
299.097	28
300.097	4
