Mass spectrum: 2-Octenoic acid; ; ESI-TOF; CE:10 eV; [M+H]+
Name: 2-Octenoic acid
Name: 2-Octenic acid
Name: (2E)-2-Octenoic acid
Name: (E)-Oct-2-enoic acid
Name: 2Z-Octenoic acid
Name: Oct-2-enoic acid
Name: Trans-2-octenoic acid
Name: Trans-alpha-octenoic acid
Class: unknown
Formula: C8H14O2
Exact mass: 142.099379688
SMILES: CCCCCC=CC(O)=O
InChI: not available
Instrument: micrOTOF-Q
Instrument type: ESI-TOF
Precursor m/z: 143.106
Precursor type: [M+H]+
Base peak: 143.108
m/z	relative intensity
73.027	242
74.031	12
83.085	11
97.101	16
122.097	15
125.096	170
126.100	17
138.056	9
143.106	999
144.109	86
145.112	8
161.117	86
162.115	10
187.070	266
188.074	22
351.154	52
352.157	8
356.132	11
357.138	66
358.140	13
359.161	5
