Mass spectrum: 3-Hydroxybenzoic acid; ; ESI-TOF; CE:10 eV; [M+H]+
Name: 3-Hydroxybenzoic acid
Name: 3-Hydroxybenzoate
Name: m-Hydroxybenzoic acid
Name: Meta-hydroxybenzoic acid
Class: unknown
Formula: C7H6O3
Exact mass: 138.03169405199998
SMILES: OC1=CC=CC(=C1)C(O)=O
InChI: not available
Instrument: micrOTOF-Q
Instrument type: ESI-TOF
Precursor m/z: 137.025
Precursor type: [M+H]+
Base peak: 139.041
m/z	relative intensity
95.049	756
96.053	52
105.045	21
111.044	20
121.029	202
139.039	999
140.042	86
149.023	47
157.049	73
161.020	69
181.951	26
201.056	78
251.996	86
254.000	26
