Mass spectrum: Octanoyl-L-carnitine; ; ESI-TOF; CE:10 eV; [M-H]-
Name: Octanoyl-L-carnitine
Name: (3-Carboxy-2-hydroxypropyl)trimethyl-ammonium octanoate hydroxide inner salt ,DL-octanoylcarnitine ,L-octanoylcarnitine ,O-octanoyl-DL-carnitine ,octanoic acid ester with (+/-)-(3-carboxy-2-hydroxypropyl)trimethylammonium hydroxide inner salt
Class: unknown
Formula: C15H29NO4
Exact mass: 287.20965840800005
SMILES: CCCCCCCC(=O)OC(CC(=O)[O-])C[N+](C)(C)C
InChI: not available
Instrument: micrOTOF-Q
Instrument type: ESI-TOF
Precursor m/z: 332.207
Precursor type: [M-H]-
Base peak: 332.21
m/z	relative intensity
112.985	14
143.107	198
144.103	629
145.106	46
146.105	4
188.093	201
189.111	87
190.113	9
242.212	88
243.215	12
286.202	24
287.206	4
288.217	56
289.221	9
332.207	999
333.210	161
334.213	24
430.316	88
431.318	25
432.323	4
475.301	97
476.308	28
477.315	6
573.410	10
619.416	439
620.419	138
621.422	30
622.426	6
