Mass spectrum: (DL) beta-leucine; ; ESI-TOF; CE:10 eV; [M-H]-
Name: (DL) beta-leucine
Name: 2-Amino-4-mercaptobutyric acid
Name: 2-Amino-4-mercapto-DL-butyrate
Name: 2-Amino-4-mercapto-DL-butyric acid
Name: 2-Amino-4-sulfanyl-butanoic acid
Name: (DL) homocysteine
Name: DL-Homocysteine
Class: unknown
Formula: C6H13NO2
Exact mass: 131.094628656
SMILES: CC(C)C(N)CC(=O)O
InChI: not available
Instrument: micrOTOF-Q
Instrument type: ESI-TOF
Precursor m/z: 136.042
Precursor type: [M-H]-
Base peak: 130.084
m/z	relative intensity
103.003	2
113.059	2
130.087	999
131.090	66
132.092	6
