Mass spectrum: N-Acetylalanine; ; ESI-TOF; CE:10 eV; [M+H]+
Name: N-Acetylalanine
Name: N-Acetyl-,Alanine
Name: 2-Acetamidopropionic acid
Name: Acetylalanine
Name: Acetylalanine,N-acetyl-S-alanine,2-acetamidopropionic acid,L-Alanine, N-acetyl-,Alanine, N-acetyl-, L-
Name: L-Alanine
Name: N-Acetyl-S-alanine
Class: unknown
Formula: C5H9NO3
Exact mass: 131.058243148
SMILES: CC(=O)NC(C)C(O)=O
InChI: not available
Instrument: micrOTOF-Q
Instrument type: ESI-TOF
Precursor m/z: 132.066
Precursor type: [M+H]+
Base peak: 132.064
m/z	relative intensity
86.060	6
90.055	59
91.059	3
114.055	15
131.671	2
131.842	1
132.066	999
133.068	58
134.070	8
149.023	3
150.074	1
154.047	33
155.049	2
