Mass spectrum: Nicotinamide-N-oxide; ; ESI-TOF; CE:10 eV; [M-H]-
Name: Nicotinamide-N-oxide
Name: 1-Oxidopyridin-1-ium-3-carboxamide
Class: unknown
Formula: C6H6N2O2
Exact mass: 138.042927432
SMILES: NC(=O)C=1C=CC=[N+]([O-])C=1
InChI: not available
Instrument: micrOTOF-Q
Instrument type: ESI-TOF
Precursor m/z: 137.035
Precursor type: [M-H]-
Base peak: 137.035
m/z	relative intensity
89.023	58
94.028	52
112.986	98
122.025	248
137.035	999
138.037	77
