Mass spectrum: Rosmarinicacid; MS/MS; ESI-TOF; CE:25 eV; [M+H]+
Name: Rosmarinicacid
Name: Rosmarinate
Class: unknown
Formula: C18H16O8
Exact mass: 360.084517472
SMILES: OC(=O)C(CC1=CC=C(O)C(O)=C1)OC(=O)C=CC2=CC=C(O)C(O)=C2
InChI: not available
Instrument: micrOTOF-Q
Instrument type: ESI-TOF
Precursor m/z: 361.091
Precursor type: [M+H]+
Base peak: 163.04
m/z	relative intensity
89.039	15
107.050	9
117.034	35
135.044	119
136.048	11
139.039	62
145.029	81
163.039	999
164.043	97
165.046	10
181.049	19
