Mass spectrum: D-Tagatose; MS/MS; ESI-TOF; CE:-9 eV; [M-H]-
Name: D-Tagatose
Name: (3S,4S,5R)-1,3,4,5,6-Pentahydroxyhexan-2-one
Name: D-Tag
Name: DL-Tagatose
Name: Tagatose
Name: Lyxo-hexulose
Class: unknown
Formula: C6H12O6
Exact mass: 180.06338810399998
SMILES: OCC1(O)(OCC(O)C(O)C1(O))
InChI: not available
Instrument: micrOTOF-Q
Instrument type: ESI-TOF
Precursor m/z: 179.055
Precursor type: [M-H]-
Base peak: 89.0244
m/z	relative intensity
71.012	226
89.023	999
101.023	135
113.024	354
119.033	69
146.960	75
149.047	43
179.054	55
