Mass spectrum: Triethanolamine; ; ESI-TOF; CE:10 eV; [M-H]-
Name: Triethanolamine
Name: 2,2',2''-Nitrilotriethanol
Name: Alkanolamine
Name: Stingkill
Name: Trolamine
Name: Tris(2-hydroxyethyl)amine
Class: unknown
Formula: C6H15NO3
Exact mass: 149.10519334
SMILES: OCCN(CCO)CCO
InChI: not available
Instrument: micrOTOF-Q
Instrument type: ESI-TOF
Precursor m/z: 150.113
Precursor type: [M-H]-
Base peak: 148.099
m/z	relative intensity
148.098	999
149.101	71
150.103	8
