Mass spectrum: Inosine; ; ESI-TOF; CE:10 eV; [M+H]+
Name: Inosine
Name: Hypoxanthine 9-b-D-ribofuranoside,(-)-inosine,9-[(2R,3R,4S,5S)-3,4-dihydroxy-5-(hydroxymethyl)oxolan-2-yl]-3H-purin-6-one,,
Class: unknown
Formula: C10H12N4O5
Exact mass: 268.080769484
SMILES: OCC1OC(C(O)C1(O))N3C=NC=2C(=O)NC=NC=23
InChI: not available
Instrument: micrOTOF-Q
Instrument type: ESI-TOF
Precursor m/z: 269.087
Precursor type: [M+H]+
Base peak: 137.048
m/z	relative intensity
133.049	3
137.047	999
138.048	65
139.050	4
269.088	578
270.090	67
271.093	9
364.069	2
401.130	3
405.126	2
430.089	2
537.169	392
538.172	91
539.173	18
540.176	2
