Mass spectrum: 7,8-Dihydrobiopterin; MS/MS; ESI-TOF; CE:-19 eV; [M-H]-
Name: 7,8-Dihydrobiopterin
Name: 7,8-Dihydrobiopterin
Class: unknown
Formula: C9H13N5O3
Exact mass: 239.101839276
SMILES: CC(O)C(O)C=1CNC=2NC(N)=NC(=O)C=2(N=1)
InChI: not available
Instrument: micrOTOF-Q
Instrument type: ESI-TOF
Precursor m/z: 194.068
Precursor type: [M-H]-
Base peak: 133.051
m/z	relative intensity
82.030	186
96.020	190
106.039	158
108.021	170
109.039	327
123.068	467
124.052	897
125.047	139
133.051	999
138.041	325
149.047	478
150.043	172
151.058	153
152.044	231
166.072	865
176.057	735
178.037	265
194.067	340
