Mass spectrum: Decanoyl-L-carnitine; ; ESI-TOF; CE:10 eV; [M+H]+
Name: Decanoyl-L-carnitine
Name: O-Decanoyl-L-carnitine
Name: [(2R)-2-Decanoyloxy-4-oxo-pentyl]-trimethyl-azanium
Class: unknown
Formula: C17H33NO4
Exact mass: 315.24095853600005
SMILES: CCCCCCCCCC(=O)OC(CC(=O)[O-])C[N+](C)(C)C
InChI: not available
Instrument: micrOTOF-Q
Instrument type: ESI-TOF
Precursor m/z: 316.251
Precursor type: [M+H]+
Base peak: 316.247
m/z	relative intensity
316.248	999
317.252	193
318.254	26
319.257	3
