Mass spectrum: Lactulose; ; ESI-TOF; CE:10 eV; [M-H]-
Name: Lactulose
Name: 4-O-(Z)--D-Galactopyranosyl-D-fructofuranose,4-O-(Z)--D-Galactopyranosyl-D-fructose
Name: (2S,3R,4S,5R,6R)-2-[(2R,3S,4S,5R)-4,5-Dihydroxy-2,5-bis(hydroxymethyl)oxolan-3-yl]oxy-6-(hydroxymethyl)oxane-3,4,5-triol
Class: unknown
Formula: C12H22O11
Exact mass: 342.116211524
SMILES: OCC2OC(OC1C(CO)OC(O)(CO)C1(O))C(O)C(O)C2(O)
InChI: not available
Instrument: micrOTOF-Q
Instrument type: ESI-TOF
Precursor m/z: 649.219
Precursor type: [M-H]-
Base peak: 683.227
m/z	relative intensity
101.023	4
143.035	12
161.046	249
162.049	15
163.049	3
179.056	47
180.059	3
281.086	3
323.101	4
341.109	587
342.112	70
343.113	16
377.084	17
379.081	6
387.114	313
388.117	41
389.118	10
417.124	5
429.121	3
431.138	34
432.143	6
441.033	8
503.160	15
504.163	3
683.225	999
684.227	261
685.228	66
686.233	11
687.229	3
