Mass spectrum: S-2-Phenylpropionic acid; ; ESI-TOF; CE:10 eV; [M+H]+
Name: S-2-Phenylpropionic acid
Name: (S)-(+)-Hydratropic acid
Name: (S)-HTA
Class: unknown
Formula: C9H10O2
Exact mass: 150.06807956
SMILES: CC(C(=O)O)C=1C=CC=CC=1
InChI: not available
Instrument: micrOTOF-Q
Instrument type: ESI-TOF
Precursor m/z: 151.075
Precursor type: [M+H]+
Base peak: 105.068
m/z	relative intensity
77.038	17
79.053	51
95.049	31
103.054	99
105.070	999
106.073	96
122.095	26
149.024	29
151.075	743
152.080	81
173.057	406
174.061	41
195.039	785
196.043	77
355.067	145
356.071	29
357.085	24
367.094	54
368.097	12
