Mass spectrum: Isohomovanillicacid; ; ESI-TOF; CE:10 eV; [M+H]+
Name: Isohomovanillicacid
Name: Homoisovanillic acid,4-methoxy-3-hydroxyphenylacetic acid,3-hydroxy-4-methoxyphenylacetic acid,isohomovanillate,Homo-iso-vanillic acid,Homoisovanillate
Class: unknown
Formula: C9H10O4
Exact mass: 182.0579088
SMILES: COC1=CC=C(CC(=O)O)C=C1(O)
InChI: not available
Instrument: micrOTOF-Q
Instrument type: ESI-TOF
Precursor m/z: 183.066
Precursor type: [M+H]+
Base peak: 137.062
m/z	relative intensity
79.052	1
91.053	1
94.042	15
95.046	2
107.051	1
122.036	35
123.039	3
136.642	1
137.060	999
138.063	89
139.066	7
144.077	1
149.024	2
165.052	1
167.064	2
179.035	2
180.102	3
182.056	10
183.066	452
184.068	40
185.071	6
204.037	2
205.047	420
206.051	36
207.052	5
223.058	54
224.062	7
225.066	1
