Mass spectrum: Lipoamide; ; ESI-TOF; CE:10 eV; [M+H]+
Name: Lipoamide
Name: 5-(Dithiolan-3-yl)pentanamide
Name: Thioctic acid amide,Thioctamide,Vitamin N,alpha-lipoic acid amide,a-Lipoic amide,DL-a-Lipoamide,DL-6,8-Thioctic acid amide,a-Lipoamide
Class: unknown
Formula: C8H15NOS2
Exact mass: 205.0595061
SMILES: NC(=O)CCCCC1CCSS1
InChI: not available
Instrument: micrOTOF-Q
Instrument type: ESI-TOF
Precursor m/z: 118.051
Precursor type: [M+H]+
Base peak: 206.069
m/z	relative intensity
206.067	999
207.070	108
208.063	98
209.066	9
210.058	3
