Mass spectrum: Genistein; ; ESI-TOF; CE:10 eV; [M+H]+
Name: Genistein
Name: 4',5,7-Trihydroxyisoflavone
Name: 5,7,4'-Trihydroxyisoflavone
Name: 5,7-Dihydroxy-3-(4-hydroxyphenyl)-4H-1-benzopyran-4-one
Class: unknown
Formula: C15H10O5
Exact mass: 270.05282342
SMILES: OC1=CC=C(C=C1)C2=COC=3C=C(O)C=C(O)C=3(C2(=O))
InChI: not available
Instrument: micrOTOF-Q
Instrument type: ESI-TOF
Precursor m/z: 271.066
Precursor type: [M+H]+
Base peak: 271.064
m/z	relative intensity
122.0957	19
146.9620	18
149.0230	26
204.9687	13
271.0621	999
272.0656	152
273.0689	20
293.0446	100
294.0472	17
