Mass spectrum: 3-O-Methyl-D-glucopyranose; ; ESI-TOF; CE:10 eV; [M+H]+
Name: 3-O-Methyl-D-glucopyranose
Name: 3-O-Methyl-a-D-glucopyranose
Name: 3-O-Methyl-alpha-D-glucopyranose
Name: 3-O-Methyl-D-Glucose
Name: 3-O-Methylglucose
Class: unknown
Formula: C7H14O6
Exact mass: 194.07903816799998
SMILES: COC1C(O)C(O)OC(CO)C1(O)
InChI: not available
Instrument: micrOTOF-Q
Instrument type: ESI-TOF
Precursor m/z: 165.042
Precursor type: [M+H]+
Base peak: 195.084
m/z	relative intensity
195.086	999
196.090	80
197.091	15
198.094	1
