Mass spectrum: Guanidinopropionic acid; ; ESI-TOF; CE:10 eV; [M+H]+
Name: Guanidinopropionic acid
Name: 3-Carbamimidamidopropanoic acid
Name: 3-Guanidinopropanoate
Name: 3-Guanidinopropanoic acid
Name: 3-Guanidinopropionic acid
Name: Beta-guanadinopropionate
Name: Beta-guanidinopropionic acid
Name: N-(Aminoiminomethyl)-beta-alanine
Class: unknown
Formula: C4H9N3O2
Exact mass: 131.069476528
SMILES: NC(=N)NCCC(O)=O
InChI: not available
Instrument: micrOTOF-Q
Instrument type: ESI-TOF
Precursor m/z: 191.021
Precursor type: [M+H]+
Base peak: 132.076
m/z	relative intensity
132.077	999
133.079	56
134.081	5
