Mass spectrum: Rosmarinicacid; ; ESI-TOF; CE:10 eV; [M-H]-
Name: Rosmarinicacid
Name: Rosmarinate
Class: unknown
Formula: C18H16O8
Exact mass: 360.084517472
SMILES: OC(=O)C(CC1=CC=C(O)C(O)=C1)OC(=O)C=CC2=CC=C(O)C(O)=C2
InChI: not available
Instrument: micrOTOF-Q
Instrument type: ESI-TOF
Precursor m/z: 153.076
Precursor type: [M-H]-
Base peak: 359.079
m/z	relative intensity
359.077	999
360.081	199
361.084	35
362.085	4
