Mass spectrum: 2-(4-Hydroxyphenyl)propionic acid; MS/MS; ESI-TOF; CE:19 eV; [M+H]+
Name: 2-(4-Hydroxyphenyl)propionic acid
Class: unknown
Formula: C9H10O3
Exact mass: 166.06299417999998
SMILES: CC(C(O)=O)C=1C=CC(O)=CC=1
InChI: not available
Instrument: micrOTOF-Q
Instrument type: ESI-TOF
Precursor m/z: 167.07
Precursor type: [M+H]+
Base peak: 121.064
m/z	relative intensity
77.037	8
91.054	40
93.069	79
94.072	6
95.049	18
103.053	65
104.057	7
105.045	10
121.064	999
122.068	96
123.070	6
