Mass spectrum: 4-Hydroxyphenylethanol; ; ESI-TOF; CE:10 eV; [M+H]+
Name: 4-Hydroxyphenylethanol
Name: 4-Hydroxyphenylethylalcohol
Name: 2-(4-Hydroxyphenyl)ehanol
Class: unknown
Formula: C8H10O2
Exact mass: 138.06807956
SMILES: OCCC1=CC=C(O)C=C1
InChI: not available
Instrument: micrOTOF-Q
Instrument type: ESI-TOF
Precursor m/z: 194.041
Precursor type: [M+H]+
Base peak: 121.064
m/z	relative intensity
77.038	10
91.054	43
92.058	4
93.070	48
94.073	4
95.049	21
102.046	4
103.054	78
104.058	7
105.045	15
107.051	4
119.052	4
121.066	999
122.069	91
123.068	6
137.029	5
138.067	5
139.075	6
161.058	65
162.075	5
