Mass spectrum: Naringin; MS/MS; ESI-TOF; CE:-30 eV; [M-H]-
Name: Naringin
Class: unknown
Formula: C27H32O14
Exact mass: 580.179205704
SMILES: CC5OC(OC4C(O)C(O)C(CO)OC4(OC=1C=C(O)C=2C(=O)CC(OC=2(C=1))C3=CC=C(O)C=C3))C(O)C(O)C5(O)
InChI: not available
Instrument: micrOTOF-Q
Instrument type: ESI-TOF
Precursor m/z: 579.171
Precursor type: [M-H]-
Base peak: 271.058
m/z	relative intensity
145.029	81
151.003	274
152.006	22
177.019	50
193.014	23
235.023	47
271.059	999
272.062	137
313.068	52
373.090	25
459.113	142
460.117	27
579.169	98
580.173	28
