Mass spectrum: 3-Hydroxybenzoic acid; MS/MS; ESI-TOF; CE:10 eV; [M+H]+
Name: 3-Hydroxybenzoic acid
Name: 3-Hydroxybenzoate
Name: m-Hydroxybenzoic acid
Name: Meta-hydroxybenzoic acid
Class: unknown
Formula: C7H6O3
Exact mass: 138.03169405199998
SMILES: OC1=CC=CC(=C1)C(O)=O
InChI: not available
Instrument: micrOTOF-Q
Instrument type: ESI-TOF
Precursor m/z: 139.04
Precursor type: [M+H]+
Base peak: 95.0476
m/z	relative intensity
77.038	123
93.032	25
95.049	999
96.053	71
105.045	170
111.045	54
121.030	222
122.033	23
139.040	28
