Mass spectrum: D-Mannoheptulose; ; ESI-TOF; CE:10 eV; [M+H]+
Name: D-Mannoheptulose
Name: (+)-Mannoheptulose
Name: Alpha-D-Mannoheptulopyranose
Name: (D) Mannoheptulose
Name: Hept-2-ulose
Name: Mannoheptose
Name: D-Manno-2-heptulose
Class: unknown
Formula: C7H14O7
Exact mass: 210.07395278799999
SMILES: OCC1OC(O)(CO)C(O)C(O)C1(O)
InChI: not available
Instrument: micrOTOF-Q
Instrument type: ESI-TOF
Precursor m/z: 193.071
Precursor type: [M+H]+
Base peak: 193.069
m/z	relative intensity
69.033	3
74.059	3
83.048	13
85.027	16
90.054	3
97.028	27
99.043	6
104.070	35
106.050	4
111.044	23
113.024	4
115.039	12
116.069	3
122.072	7
127.039	13
129.055	6
139.038	35
144.080	3
145.050	3
149.023	10
157.049	149
158.052	13
159.969	4
174.106	3
175.060	43
176.066	4
181.952	5
193.071	999
194.075	71
195.077	16
233.065	49
234.071	4
385.140	146
386.143	23
387.146	5
