Mass spectrum: N-Acetyl-L-glutamine; ; ESI-TOF; CE:10 eV; [M-H]-
Name: N-Acetyl-L-glutamine
Name: (2S)-2-Acetamido-5-amino-5-oxopentanoic acid
Class: unknown
Formula: C7H12N2O4
Exact mass: 188.079706864
SMILES: CC(=O)NC(CCC(N)=O)C(O)=O
InChI: not available
Instrument: micrOTOF-Q
Instrument type: ESI-TOF
Precursor m/z: 189.087
Precursor type: [M-H]-
Base peak: 187.072
m/z	relative intensity
187.072	999
188.076	86
189.077	11
