Mass spectrum: Naringin; ; ESI-TOF; CE:10 eV; [M-H]-
Name: Naringin
Class: unknown
Formula: C27H32O14
Exact mass: 580.179205704
SMILES: CC5OC(OC4C(O)C(O)C(CO)OC4(OC=1C=C(O)C=2C(=O)CC(OC=2(C=1))C3=CC=C(O)C=C3))C(O)C(O)C5(O)
InChI: not available
Instrument: micrOTOF-Q
Instrument type: ESI-TOF
Precursor m/z: 273.076
Precursor type: [M-H]-
Base peak: 579.166
m/z	relative intensity
112.985	81
146.942	53
157.012	51
180.984	101
237.110	39
244.984	41
579.171	999
580.173	281
581.175	78
