Mass spectrum: 3,4-Dihydroxymandelic acid; MS/MS; ESI-TOF; CE:-19 eV; [M-H]-
Name: 3,4-Dihydroxymandelic acid
Name: 3,4 Dihydroxymandelate
Name: (+-)-Isomer,3,4-dihydroxymandelic acid
Name: (S)-Isomer,3,4-dihydroxymandelic acid
Name: 2-(3,4-Dihydroxyphenyl)-2-hydroxy-acetic acid
Name: 3,4 Dihydroxymandelic acid
Name: 3,4-Dihydroxymandelate
Name: 3,4-Dihydroxymandelic acid
Name: 3,4-Dihydroxyphenylglycolate
Name: 3,4-Dihydroxyphenylglycolic acid
Name: DHMA
Name: Dihydroxymandelate
Name: Dihydroxymandelic acid
Name: DL-3,4-dihydroxymandelic acid
Class: unknown
Formula: C8H8O5
Exact mass: 184.03717335599998
SMILES: OC(=O)C(O)C1=CC=C(O)C(O)=C1
InChI: not available
Instrument: micrOTOF-Q
Instrument type: ESI-TOF
Precursor m/z: 183.03
Precursor type: [M-H]-
Base peak: 137.025
m/z	relative intensity
121.029	15
137.024	999
138.027	67
139.036	21
