Mass spectrum: D-Lyxose; ; ESI-TOF; CE:10 eV; [M+H]+
Name: D-Lyxose
Name: D-Lyx
Name: D-Lyxo-pentose
Class: unknown
Formula: C5H10O5
Exact mass: 150.05282341999998
SMILES: OC1COC(O)C(O)C1(O)
InChI: not available
Instrument: micrOTOF-Q
Instrument type: ESI-TOF
Precursor m/z: 265.229
Precursor type: [M+H]+
Base peak: 265.089
m/z	relative intensity
69.033	4
71.012	3
73.027	26
81.034	2
84.044	19
85.028	11
97.028	29
98.034	2
99.043	4
103.038	10
104.070	13
111.044	2
113.024	5
115.039	66
116.047	3
117.054	7
122.073	8
123.049	3
124.070	3
127.039	2
133.049	559
134.053	31
135.050	7
137.051	3
139.039	24
143.034	39
144.077	6
145.048	7
149.042	34
150.070	5
151.057	13
156.072	3
157.049	18
162.087	3
165.055	7
167.052	6
169.049	8
170.035	8
173.042	89
174.075	83
175.071	9
178.021	17
178.524	2
179.035	10
181.053	2
183.066	5
187.058	24
188.051	5
191.052	4
193.047	4
195.092	2
199.061	4
204.978	2
205.072	3
211.060	360
212.063	36
213.066	6
217.071	6
224.127	4
229.071	149
230.074	17
231.075	3
236.057	7
237.074	3
244.044	13
244.544	3
245.062	42
245.565	7
246.057	2
247.082	125
248.087	14
249.092	3
250.987	2
252.051	4
252.552	4
253.050	52
253.551	10
254.055	15
254.555	3
255.049	5
263.995	12
265.094	999
266.097	107
267.098	21
268.100	2
