Mass spectrum: 3-(2-Hydroxyphenyl)propionic acid; MS/MS; ESI-TOF; CE:-19 eV; [M-H]-
Name: 3-(2-Hydroxyphenyl)propionic acid
Name: 2-Hydroxyhydrocinnamic acid
Name: 2-Hydroxyphenylpropanoate
Name: 2-Hydroxyphenylpropionic acid
Name: 3-(2-Hydroxyphenyl)propanoate
Name: 3-(2-Hydroxyphenyl)propionate
Name: Melilotate
Name: Melilotic acid
Class: unknown
Formula: C9H10O3
Exact mass: 166.06299417999998
SMILES: OC(=O)CCC=1C=CC=CC=1(O)
InChI: not available
Instrument: micrOTOF-Q
Instrument type: ESI-TOF
Precursor m/z: 165.058
Precursor type: [M-H]-
Base peak: 121.066
m/z	relative intensity
106.042	180
107.045	13
108.024	3
119.049	31
120.052	2
121.066	999
122.068	90
123.072	5
138.031	115
139.035	8
147.045	50
148.048	5
165.055	19
166.059	2
