Mass spectrum: Gallic acid; MS/MS; ESI-TOF; CE:19 eV; [M+H]+
Name: Gallic acid
Name: Gallate
Name: 3,4,5-Trihydroxybenzoate
Name: 3,4,5-Trihydroxybenzoic acid
Name: Pyrogallol-5-carboxylic acid
Class: unknown
Formula: C7H6O5
Exact mass: 170.02152329199998
SMILES: OC(=O)C1=CC(O)=C(O)C(O)=C1
InChI: not available
Instrument: micrOTOF-Q
Instrument type: ESI-TOF
Precursor m/z: 171.03
Precursor type: [M+H]+
Base peak: 109.031
m/z	relative intensity
79.017	54
81.033	668
82.036	47
97.028	79
107.013	809
108.017	63
109.029	999
110.032	82
125.024	664
126.026	49
127.039	506
128.041	32
135.009	79
137.035	32
143.034	48
153.019	683
154.023	50
171.029	99
