Mass spectrum: Homogentisic acid; MS/MS; ESI-TOF; CE:18 eV; [M+H]+
Name: Homogentisic acid
Name: 2,5-Dihydroxyphenylacetic acid
Name: 2,5-Dihydroxyphenylacetate
Name: Homogentisate
Class: unknown
Formula: C8H8O4
Exact mass: 168.042258736
SMILES: OC(=O)CC=1C=C(O)C=CC=1(O)
InChI: not available
Instrument: micrOTOF-Q
Instrument type: ESI-TOF
Precursor m/z: 151.384
Precursor type: [M+H]+
Base peak: 95.0485
m/z	relative intensity
77.038	30
94.041	26
95.049	999
96.052	67
105.045	47
121.032	54
122.034	27
123.043	164
149.023	48
151.039	130
