Mass spectrum: N-Acetyl-L-phenylalanine; MS/MS; ESI-TOF; CE:10 eV; [M+H]+
Name: N-Acetyl-L-phenylalanine
Name: (2S)-2-Acetamido-3-phenylpropanoic acid
Name: Acetyl-L-phenylalanine  ,L-N-acetylphenylalanine ,N-acetylphenylalanine ,N-acetyl-3-phenyl-L-Alanine,acetyl phenylalanine
Class: unknown
Formula: C11H13NO3
Exact mass: 207.089543276
SMILES: CC(=O)NC(CC=1C=CC=CC=1)C(O)=O
InChI: not available
Instrument: micrOTOF-Q
Instrument type: ESI-TOF
Precursor m/z: 208.098
Precursor type: [M+H]+
Base peak: 120.083
m/z	relative intensity
103.054	5
120.080	999
121.083	89
122.086	5
131.049	12
149.060	20
162.091	83
163.094	9
166.086	265
167.089	28
168.091	3
