Mass spectrum: Phytosphingosine; MS/MS; ESI-TOF; CE:10 eV; [M+H]+
Name: Phytosphingosine
Name: 4-Hydroxysphinganine,4-D-hydroxysphinganine  ,1,3,4-octadecanetriol, 2-amino-, (2S-(2R*,3R*,4S*))-,Phytosphingosine hydrochloride ,D-Ribo-1,3,4-trihydroxy-2-aminooctadecane,D-Ribo-2-aminooctadecane-1,3,4-triol
Name: Phytosphingosine, 4-hydroxysphinganine, 4-D-hydroxysphinganine, nchembio.191-comp6, D-Ribo-phytosphingosine, Phytosphingosine hydrochloride, P2795_SIGMA, CHEbi:46961, MolPort-003-959-216, CID122121, LMSP01030001, D-Ribo-2-aminooctadecane-1,3,4-triol, SMP2_000142, NCGC00163609-01, D-Ribo-1,3,4-trihydroxy-2-aminooctadecane, P1765, (2S,3S,4R)-2-amino-1,3,4-octadecanetriol, C12144, 1,3,4-octadecanetriol, 2-amino-, (2S-(2R*,3R*,4S*))-, 554-62-1, PHS
Class: unknown
Formula: C18H39NO3
Exact mass: 317.292994108
SMILES: CCCCCCCCCCCCCCC(O)C(O)C(N)CO
InChI: not available
Instrument: micrOTOF-Q
Instrument type: ESI-TOF
Precursor m/z: 318.302
Precursor type: [M+H]+
Base peak: 282.273
m/z	relative intensity
81.070	66
83.084	69
90.054	47
93.070	36
95.084	99
97.100	63
107.086	41
109.102	78
121.100	45
252.268	170
253.265	37
254.283	92
256.262	42
264.266	204
265.258	84
270.277	226
271.281	48
282.277	999
283.281	199
300.287	457
301.291	91
318.297	147
