Mass spectrum: Mucicacid; ; ESI-TOF; CE:10 eV; [M-H]-
Name: Mucicacid
Name: Galactaric acid,tetrahydroxyadipic acid,D-Galactarate,D-Mucic acid,D-Galactaric acid,(2R,3S,4R,5S)-2,3,4,5-tetrahydroxyhexanedioic acid,Galactarate ,Galactosaccharate ,Galactosaccharic acid ,Meso-galactaric acid,Saccharolactate ,Saccharolactic acid ,Schleimsaure ,hexaric acid
Class: unknown
Formula: C6H10O8
Exact mass: 210.03756728
SMILES: OC(=O)C(O)C(O)C(O)C(O)C(O)=O
InChI: not available
Instrument: micrOTOF-Q
Instrument type: ESI-TOF
Precursor m/z: 209.03
Precursor type: [M-H]-
Base peak: 209.031
m/z	relative intensity
85.028	45
86.033	2
103.003	4
112.986	3
129.018	5
133.014	11
146.939	3
147.029	14
149.008	11
161.007	4
179.019	14
191.018	59
192.023	4
195.050	5
209.030	999
210.033	62
211.034	16
