Mass spectrum: Meso-tartaricacid; ; ESI-TOF; CE:10 eV; [M-H]-
Name: Meso-tartaricacid
Name: (2R,3S)-2,3-Dihydroxybutanedioic acid
Name: Meso-Tartrate,Erythraric acid,(2R,3S)-Tartaric acid,(2R,3S)-2,3-dihydroxysuccinic acid
Class: unknown
Formula: C4H6O6
Exact mass: 150.016437912
SMILES: OC(=O)C(O)C(O)C(O)=O
InChI: not available
Instrument: micrOTOF-Q
Instrument type: ESI-TOF
Precursor m/z: 129.02
Precursor type: [M-H]-
Base peak: 149.009
m/z	relative intensity
149.009	999
150.013	46
151.013	12
