Mass spectrum: 4-Hydroxyphenylethanol; MS/MS; ESI-TOF; CE:-18 eV; [M-H]-
Name: 4-Hydroxyphenylethanol
Name: 4-Hydroxyphenylethylalcohol
Name: 2-(4-Hydroxyphenyl)ehanol
Class: unknown
Formula: C8H10O2
Exact mass: 138.06807956
SMILES: OCCC1=CC=C(O)C=C1
InChI: not available
Instrument: micrOTOF-Q
Instrument type: ESI-TOF
Precursor m/z: 137.061
Precursor type: [M-H]-
Base peak: 137.058
m/z	relative intensity
93.033	103
106.042	413
107.048	211
108.022	117
119.050	534
120.053	52
135.044	63
137.060	999
138.037	206
