Mass spectrum: Hordenine; ; ESI-TOF; CE:10 eV; [M+H]+
Name: Hordenine
Name: Anhalin
Name: 4-[2-(Dimethylamino)ethyl]phenol,4-(2-dimethylaminoethyl)phenol ,Anhalin ,Anhaline ,Cactine ,Eremursine ,Hordenin ,Hordetin ,N,N-dimethyl-p-hydroxyphenethylamine ,N,N-dimethyltyramine ,Ordenina ,Ordenine ,Peyocactine ,p-(2-dimethylaminoethyl)phenol ,p-hydroxy-N,N-dimethylphenethylamine ,p-[2-(dimethylamino)ethyl]phenol
Name: p-Hydroxy-N,N-dimethylphenethylamine
Name: 4-[2-(Dimethylamino)ethyl]phenol
Name: N,N-Dimethyl-p-hydroxyphenethylamine
Name: Anhaline
Name: Hordenin
Name: Cactine
Name: Eremursine
Name: Ordenina
Name: Hordetin
Name: 4-(2-Dimethylaminoethyl)phenol
Name: Ordenine
Name: N,N-Dimethyltyramine
Name: Peyocactine
Name: p-(2-Dimethylaminoethyl)phenol
Class: unknown
Formula: C10H15NO
Exact mass: 165.1153641
SMILES: CN(C)CCC=1C=CC(O)=CC=1
InChI: not available
Instrument: micrOTOF-Q
Instrument type: ESI-TOF
Precursor m/z: 166.123
Precursor type: [M+H]+
Base peak: 166.126
m/z	relative intensity
166.123	999
167.126	114
168.128	8
