Mass spectrum: D-Hexanolactone; ; ESI-TOF; CE:10 eV; [M-H]-
Name: D-Hexanolactone
Name: (RS)-D-hexalactone
Name: 5-Hexanolide
Name: 5-Hydroxy-hexanoic acid D-lactone
Name: 5-Hydroxyhexanoic acid lactone
Name: 6-Methyl-D-valerolactone
Name: 6-Methyloxan-2-one
Name: 6-Methylvalerolactone
Name: D-Caprolactone
Name: D-Hexalactone
Name: D-Hexanolide
Name: Hexanolactone
Name: D-Methyl-D-valerolactone
Name: Tetrahydro-6-methyl-2H-pyran-2-one
Class: unknown
Formula: C6H10O2
Exact mass: 114.06807956
SMILES: CC1CCCC(=O)O1
InChI: not available
Instrument: micrOTOF-Q
Instrument type: ESI-TOF
Precursor m/z: 115.075
Precursor type: [M-H]-
Base peak: 131.071
m/z	relative intensity
71.048	8
85.064	82
86.067	5
87.079	11
101.059	2
111.044	2
113.060	24
114.064	2
129.056	17
131.072	999
132.075	66
133.076	8
