Mass spectrum: Ectoine; ; ESI-TOF; CE:10 eV; [M+H]+
Name: Ectoine
Name: (S)-2-Methyl-1,4,5,6-tetrahydropyrimidine-4-carboxylic acid
Name: THP(B)
Class: unknown
Formula: C6H10N2O2
Exact mass: 142.07422756
SMILES: CC=1NCCC(N=1)C(O)=O
InChI: not available
Instrument: micrOTOF-Q
Instrument type: ESI-TOF
Precursor m/z: 162.059
Precursor type: [M+H]+
Base peak: 143.082
m/z	relative intensity
143.081	999
144.084	74
145.086	6
