Mass spectrum: Deoxycytidine; MS/MS; ESI-TOF; CE:-22 eV; [M-H]-
Name: Deoxycytidine
Name: 2'-Deoxycytidine
Name: 2'-Deoxy-cytidine
Name: 2-Deoxycytidine
Name: Cytosine deoxyribonucleoside
Name: Cytosine deoxyriboside
Name: DC
Name: DCYD
Name: Deoxyribose cytidine
Name: D-Cytidine
Name: Desoxycytidine
Class: unknown
Formula: C9H13N3O4
Exact mass: 227.090605896
SMILES: NC=1C=CN(C(=O)N=1)C2CC(O)C(CO)O2
InChI: not available
Instrument: micrOTOF-Q
Instrument type: ESI-TOF
Precursor m/z: 226.083
Precursor type: [M-H]-
Base peak: 93.0417
m/z	relative intensity
93.044	999
94.045	48
135.058	165
136.050	25
