Mass spectrum: Guanosine-5'-phosphate; ; ESI-TOF; CE:10 eV; [M-H]-
Name: Guanosine-5'-phosphate
Name: GMP
Name: Guanosine 5'-monophosphate
Name: Guanylic acid
Name: Guanosine monophosphate
Class: unknown
Formula: C10H14N5O8P
Exact mass: 363.057999038
SMILES: NC=1NC(=O)C=2N=CN(C=2(N=1))C3OC(COP(O)(O)=O)C(O)C3(O)
InChI: not available
Instrument: micrOTOF-Q
Instrument type: ESI-TOF
Precursor m/z: 409.016
Precursor type: [M-H]-
Base peak: 362.044
m/z	relative intensity
146.9398	4
362.0506	999
363.0518	130
364.0536	23
365.0551	2
