Mass spectrum: 3,4-Dihydroxybenzoic acid; MS/MS; ESI-TOF; CE:-18 eV; [M-H]-
Name: 3,4-Dihydroxybenzoic acid
Name: 3,4-Dihydroxybenzoate
Name: 4,5-Dihydroxybenzoic acid
Name: 4-Carboxy-1,2-dihydroxybenzene
Name: Beta-Resorcylate
Name: Beta-Resorcylic acid
Name: b-Resorcylate
Name: b-Resorcylic acid
Name: Protocatechuic acid
Name: Protocatechuate
Name: Protocatehuic acid
Class: unknown
Formula: C7H6O4
Exact mass: 154.026608672
SMILES: OC(=O)C=1C=CC(O)=C(O)C=1
InChI: not available
Instrument: micrOTOF-Q
Instrument type: ESI-TOF
Precursor m/z: 153.021
Precursor type: [M-H]-
Base peak: 109.027
m/z	relative intensity
81.033	13
91.017	18
108.021	138
109.029	999
110.032	65
111.034	6
153.019	30
