Mass spectrum: Phenacetin; ; ESI-TOF; CE:10 eV; [M+H]+
Name: Phenacetin
Name: Acetophenetidin,p-acetophenetidide,4'-ethoxyacetanilide,1-acetyl-p-phenetidin,
Class: unknown
Formula: C10H13NO2
Exact mass: 179.094628656
SMILES: CCOC=1C=CC(=CC=1)NC(C)=O
InChI: not available
Instrument: micrOTOF-Q
Instrument type: ESI-TOF
Precursor m/z: 179.057
Precursor type: [M+H]+
Base peak: 180.102
m/z	relative intensity
122.095	8
138.092	17
146.960	7
149.024	17
159.968	5
179.093	6
180.103	999
181.106	105
182.107	9
197.077	6
202.084	215
203.087	23
204.968	7
