Mass spectrum: 3-Methylglutaconic acid; ; ESI-TOF; CE:10 eV; [M+H]+
Name: 3-Methylglutaconic acid
Name: 3-Methyl-2-pentenedioic acid
Class: unknown
Formula: C6H8O4
Exact mass: 144.042258736
SMILES: CC(=CC(O)=O)CC(O)=O
InChI: not available
Instrument: micrOTOF-Q
Instrument type: ESI-TOF
Precursor m/z: 145.05
Precursor type: [M+H]+
Base peak: 145.05
m/z	relative intensity
81.033	28
99.044	222
100.047	14
109.028	35
127.039	545
128.042	39
129.044	5
145.049	999
146.053	64
147.054	10
167.031	275
168.035	19
342.010	10
343.016	62
344.017	9
345.034	8
