Mass spectrum: m-Coumaric acid; ; ESI-TOF; CE:10 eV; [M+H]+
Name: m-Coumaric acid
Name: 3-Hydroxycinnamic acid
Name: (E)-3-(3-Hydroxyphenyl)prop-2-enoic acid
Name: 3- (3-Hydroxyphenyl)-2-propenoic acid
Name: 3-Coumarate
Name: 3-Coumaric acid
Name: m-Hydroxy-Cinnamic acid
Name: 3-(3-Hydroxyphenyl)acrylic acid
Name: Trans-3-hydroxycinnamate
Name: Trans-3-hydroxycinnamic acid
Class: unknown
Formula: C9H8O3
Exact mass: 164.04734411599998
SMILES: OC(=O)CCC=1C=CC=C(O)C=1
InChI: not available
Instrument: micrOTOF-Q
Instrument type: ESI-TOF
Precursor m/z: 119.05
Precursor type: [M+H]+
Base peak: 147.045
m/z	relative intensity
91.054	27
119.049	103
120.053	9
122.095	7
147.044	999
148.047	92
149.032	11
165.054	182
166.058	19
187.035	42
188.038	5
