Mass spectrum: Isocaproic acid; ; ESI-TOF; CE:10 eV; [M+H]+
Name: Isocaproic acid
Name: 3-Methylbutane-1-carboxylic acid
Name: 4-Methylpentanoic acid
Name: 4-Methyl-pentanoic acid
Name: 4-Methylvaleric acid
Name: 4-Methyl-Valeric acid
Name: Isobutylacetic acid
Name: Isohexanoic acid
Class: unknown
Formula: C6H12O2
Exact mass: 116.083729624
SMILES: CC(C)CCC(O)=O
InChI: not available
Instrument: micrOTOF-Q
Instrument type: ESI-TOF
Precursor m/z: 115.076
Precursor type: [M+H]+
Base peak: 117.092
m/z	relative intensity
117.091	999
118.094	67
119.096	6
