Mass spectrum: L-Alpha-hydroxy isovalericacid; ; ESI-TOF; CE:10 eV; [M-H]-
Name: L-Alpha-hydroxy isovalericacid
Name: (2S)-2-Hydroxy-3-methylbutanoic acid
Class: unknown
Formula: C5H10O3
Exact mass: 118.06299417999999
SMILES: CC(C)C(O)C(O)=O
InChI: not available
Instrument: micrOTOF-Q
Instrument type: ESI-TOF
Precursor m/z: 118.032
Precursor type: [M-H]-
Base peak: 117.057
m/z	relative intensity
71.049	18
115.039	4
117.056	999
118.059	56
119.060	8
