Mass spectrum: Octanoyl-L-carnitine; ; ESI-TOF; CE:10 eV; [M+H]+
Name: Octanoyl-L-carnitine
Name: (3-Carboxy-2-hydroxypropyl)trimethyl-ammonium octanoate hydroxide inner salt ,DL-octanoylcarnitine ,L-octanoylcarnitine ,O-octanoyl-DL-carnitine ,octanoic acid ester with (+/-)-(3-carboxy-2-hydroxypropyl)trimethylammonium hydroxide inner salt
Class: unknown
Formula: C15H29NO4
Exact mass: 287.209658408
SMILES: CCCCCCCC(=O)OC(CC(=O)[O-])C[N+](C)(C)C
InChI: not available
Instrument: micrOTOF-Q
Instrument type: ESI-TOF
Precursor m/z: 288.218
Precursor type: [M+H]+
Base peak: 288.216
m/z	relative intensity
85.029	3
181.951	2
229.142	8
287.283	3
288.218	999
289.218	171
290.220	22
291.223	2
