Mass spectrum: 5-Hydroxymethylfurfural; MS/MS; ESI-TOF; CE:17 eV; [M+H]+
Name: 5-Hydroxymethylfurfural
Name: 5-Oxymethylfurfurole
Name: 2-Hydroxymethyl-5-furfural
Name: 5-(Hyddroxymethyl)furfurole
Name: 5-(Hydroxymethyl)-2-furfural
Name: 5-(Hydroxymethyl)furfural
Name: 5-Hydroxymethyl-2-furaldehyde
Name: 5-Hydroxymethylfuraldehyde
Name: HMF
Name: Hydroxymethylfurfural
Name: Hydroxymethylfurfuraldehyde
Name: Hydroxymethylfurfurole
Class: unknown
Formula: C6H6O3
Exact mass: 126.03169405199999
SMILES: O=CC1=CC=C(CO)O1
InChI: not available
Instrument: micrOTOF-Q
Instrument type: ESI-TOF
Precursor m/z: 109.03
Precursor type: [M+H]+
Base peak: 81.0316
m/z	relative intensity
81.033	999
82.035	83
109.029	166
