Mass spectrum: Hexanoyl-L-carnitine; MS/MS; ESI-TOF; CE:-15 eV; [M-H]-
Name: Hexanoyl-L-carnitine
Name: (3R)-3-Hexanoyloxy-4-trimethylazaniumylbutanoate
Name: (R)-Caproylcarnitine
Name: L-Hexanoylcarnitine
Name: O-Hexanoyl-R-carnitine
Class: unknown
Formula: C13H25NO4
Exact mass: 259.17835828
SMILES: CCCCCC(=O)OC(CC(=O)[O-])C[N+](C)(C)C
InChI: not available
Instrument: micrOTOF-Q
Instrument type: ESI-TOF
Precursor m/z: 304.175
Precursor type: [M-H]-
Base peak: 115.076
m/z	relative intensity
115.076	999
116.078	64
144.102	145
145.105	11
161.080	9
188.092	11
