Mass spectrum: 3-Methylxanthine; ; ESI-TOF; CE:10 eV; [M+H]+
Name: 3-Methylxanthine
Name: 2,6-Dihydroxy-3-methylpurine
Name: 3-Methyl Xanthine
Name: 3-Methyl-3,9-dihydro-purine-2,6-dione
Name: 3-Methyl-xanthine
Class: unknown
Formula: C6H6N4O2
Exact mass: 166.049075432
SMILES: CN2C(=O)NC(=O)C=1NC=NC=12
InChI: not available
Instrument: micrOTOF-Q
Instrument type: ESI-TOF
Precursor m/z: 132.082
Precursor type: [M+H]+
Base peak: 167.06
m/z	relative intensity
124.050	16
146.962	5
149.026	11
159.970	5
161.064	4
167.057	999
168.059	78
169.061	6
