Mass spectrum: (DL) isocitric acid; ; ESI-TOF; CE:10 eV; [M-H]-
Name: (DL) isocitric acid
Name: 1-Hydroxytricarballylic acid
Name: Isocitrate
Name: 1-Hydroxypropane-1,2,3-tricarboxylic acid
Name: D,L-Isocitric acid
Class: unknown
Formula: C6H8O7
Exact mass: 192.027002596
SMILES: OC(=O)CC(C(O)=O)C(O)C(O)=O
InChI: not available
Instrument: micrOTOF-Q
Instrument type: ESI-TOF
Precursor m/z: 193.035
Precursor type: [M-H]-
Base peak: 191.015
m/z	relative intensity
72.992	5
85.028	24
86.031	1
101.024	2
111.009	167
112.012	8
113.008	1
117.019	33
118.022	2
129.019	49
130.022	3
147.029	4
154.998	54
156.002	4
173.009	349
174.012	22
175.013	5
191.021	999
192.022	73
193.024	17
194.026	1
194.991	1
