Mass spectrum: L-Glutamine acid amide ??; MS/MS; ESI-TOF; CE:10 eV; [M+H]+
Name: L-Glutamine acid amide ??
Name: Glutamine
Name: L-Glutamine
Name: Levoglutamide
Name: (2S)-2,5-Diamino-5-oxopentanoic acid
Class: unknown
Formula: C5H10N2O3
Exact mass: 146.06914218
SMILES: NC(=O)CCC(N)C(O)=O
InChI: not available
Instrument: micrOTOF-Q
Instrument type: ESI-TOF
Precursor m/z: 147.076
Precursor type: [M+H]+
Base peak: 84.0433
m/z	relative intensity
84.045	999
85.044	53
98.060	52
102.055	461
103.058	23
121.030	11
129.066	249
130.066	21
143.079	11
149.023	16
