Mass spectrum: BOC Valine; MS/MS; ESI-TOF; CE:10 eV; [M-H]-
Name: BOC Valine
Class: unknown
Formula: C10H19NO4
Exact mass: 217.131408088
SMILES: CC(C)C(NC(=O)OC(C)(C)C)C(O)=O
InChI: not available
Instrument: micrOTOF-Q
Instrument type: ESI-TOF
Precursor m/z: 216.123
Precursor type: [M-H]-
Base peak: 142.052
m/z	relative intensity
99.044	215
142.050	999
143.054	65
