Mass spectrum: Hexanoylglycine; MS/MS; ESI-TOF; CE:-19 eV; [M-H]-
Name: Hexanoylglycine
Name: 2-(Hexanoylamino)acetic acid
Name: N-(1-Oxohexyl)-glycine
Name: N-Caproylglycine
Class: unknown
Formula: C8H15NO3
Exact mass: 173.10519334
SMILES: CCCCCC(=O)NCC(O)=O
InChI: not available
Instrument: micrOTOF-Q
Instrument type: ESI-TOF
Precursor m/z: 172.097
Precursor type: [M-H]-
Base peak: 74.0219
m/z	relative intensity
74.023	999
75.025	33
84.044	40
126.090	37
128.107	193
129.112	13
172.097	37
