Mass spectrum: Lipoamide; MS/MS; ESI-TOF; CE:10 eV; [M+H]+
Name: Lipoamide
Name: 5-(Dithiolan-3-yl)pentanamide
Name: Thioctic acid amide,Thioctamide,Vitamin N,alpha-lipoic acid amide,a-Lipoic amide,DL-a-Lipoamide,DL-6,8-Thioctic acid amide,a-Lipoamide
Class: unknown
Formula: C8H15NOS2
Exact mass: 205.0595061
SMILES: NC(=O)CCCCC1CCSS1
InChI: not available
Instrument: micrOTOF-Q
Instrument type: ESI-TOF
Precursor m/z: 206.068
Precursor type: [M+H]+
Base peak: 161.048
m/z	relative intensity
78.968	7
79.055	16
81.070	51
82.073	3
85.011	6
86.060	6
87.027	6
91.054	4
92.983	3
93.070	45
94.072	4
95.085	106
96.088	9
97.100	12
98.096	34
99.027	4
99.093	3
101.042	629
102.044	41
102.967	5
103.038	27
104.983	107
105.069	41
105.984	5
106.077	18
106.979	9
107.084	16
111.027	9
113.041	15
115.056	7
118.997	6
121.065	10
123.081	124
124.085	13
125.043	4
127.057	325
128.060	26
129.053	14
135.026	4
137.042	70
138.049	51
139.046	6
140.106	63
141.110	8
142.998	3
145.013	14
147.028	10
155.052	38
156.054	4
161.045	999
162.048	93
163.041	92
164.045	7
165.037	3
171.029	253
172.033	28
173.026	24
189.040	484
190.043	47
191.037	47
192.039	4
206.066	4
