Mass spectrum: D-Hexanolactone; ; ESI-TOF; CE:10 eV; [M+H]+
Name: D-Hexanolactone
Name: (RS)-D-hexalactone
Name: 5-Hexanolide
Name: 5-Hydroxy-hexanoic acid D-lactone
Name: 5-Hydroxyhexanoic acid lactone
Name: 6-Methyl-D-valerolactone
Name: 6-Methyloxan-2-one
Name: 6-Methylvalerolactone
Name: D-Caprolactone
Name: D-Hexalactone
Name: D-Hexanolide
Name: Hexanolactone
Name: D-Methyl-D-valerolactone
Name: Tetrahydro-6-methyl-2H-pyran-2-one
Class: unknown
Formula: C6H10O2
Exact mass: 114.06807956
SMILES: CC1CCCC(=O)O1
InChI: not available
Instrument: micrOTOF-Q
Instrument type: ESI-TOF
Precursor m/z: 240.111
Precursor type: [M+H]+
Base peak: 115.074
m/z	relative intensity
115.075	999
116.079	67
117.080	6
