Mass spectrum: Tricarballic acid; MS/MS; ESI-TOF; CE:10 eV; [M-H]-
Name: Tricarballic acid
Class: unknown
Formula: C6H8O6
Exact mass: 176.03208797599999
SMILES: OC(=O)CC(CC(O)=O)C(O)=O
InChI: not available
Instrument: micrOTOF-Q
Instrument type: ESI-TOF
Precursor m/z: 175.025
Precursor type: [M-H]-
Base peak: 87.0447
m/z	relative intensity
69.034	131
85.029	42
87.044	999
88.047	38
113.024	396
131.035	145
157.014	848
158.018	62
