Mass spectrum: 2-Phenylbutyric acid; MS/MS; ESI-TOF; CE:17 eV; [M+H]+
Name: 2-Phenylbutyric acid
Name: 2-Phenylbutanoate
Name: (RS)-2-phenylbutanoate
Name: (RS)-2-phenylbutanoic acid
Name: 2-Phenylbutyrate
Name: 2-Phenyl-butyric acid
Name: a-Ethyl-a-toluate
Name: a-Ethyl-a-toluic acid
Name: a-Ethylbenzeneacetate
Name: a-Ethylbenzeneacetic acid
Name: a-Ethyl-benzeneacetic acid
Name: a-Ethylphenylacetate
Name: a-Ethylphenylacetic acid
Name: Alpha-ethyl-alpha-toluate
Name: Alpha-ethyl-alpha-toluic acid
Name: Alpha-ethylbenzeneacetate
Name: Alpha-ethylbenzeneacetic acid
Name: Alpha-ethylphenylacetate
Name: Alpha-ethylphenylacetic acid
Name: Alpha-phenyl butyric acid
Name: Alpha-phenylbutyrate
Name: a-Phenylbutyrate
Name: a-Phenylbutyric acid
Class: unknown
Formula: C10H12O2
Exact mass: 164.083729624
SMILES: CCC(C(O)=O)C=1C=CC=CC=1
InChI: not available
Instrument: micrOTOF-Q
Instrument type: ESI-TOF
Precursor m/z: 119.086
Precursor type: [M+H]+
Base peak: 91.0547
m/z	relative intensity
91.054	999
92.058	90
107.072	13
122.096	23
