Mass spectrum: Isobutyrylcarnitine; MS/MS; ESI-TOF; CE:10 eV; [M+H]+
Name: Isobutyrylcarnitine
Name: Isobutyryl-1-carnitine,isobutyryl-carnitine,isobutyryl-L-carnitine,iso-butyryl-L(-)-carnitin,,
Class: unknown
Formula: C11H21NO4
Exact mass: 231.147058152
SMILES: CC(C)C(=O)OC(CC(=O)[O-])C[N+](C)(C)C
InChI: not available
Instrument: micrOTOF-Q
Instrument type: ESI-TOF
Precursor m/z: 232.154
Precursor type: [M+H]+
Base peak: 85.0293
m/z	relative intensity
85.027	999
86.031	45
144.101	35
173.081	224
174.084	20
232.155	198
233.158	25
