Mass spectrum: 2-Octenoic acid; ; ESI-TOF; CE:10 eV; [M+H]+
Name: 2-Octenoic acid
Name: 2-Octenic acid
Name: (2E)-2-Octenoic acid
Name: (E)-Oct-2-enoic acid
Name: 2Z-Octenoic acid
Name: Oct-2-enoic acid
Name: Trans-2-octenoic acid
Name: Trans-alpha-octenoic acid
Class: unknown
Formula: C8H14O2
Exact mass: 142.099379688
SMILES: CCCCCC=CC(O)=O
InChI: not available
Instrument: micrOTOF-Q
Instrument type: ESI-TOF
Precursor m/z: 143.106
Precursor type: [M+H]+
Base peak: 143.11
m/z	relative intensity
143.107	999
144.110	89
145.112	8
