Mass spectrum: p-Coumaric acid; MS/MS; ESI-TOF; CE:19 eV; [M+H]+
Name: p-Coumaric acid
Name: Para-Coumaric acid
Name: Para-Coumarate
Name: 4-Hydroxycinnamic acid
Name: p-Coumarate
Name: Para-hydroxycinnamic acid
Name: 4-Coumarate
Name: 4-Hydroxycinnamate
Name: Trans-4-hydroxycinnamate
Name: (E)-3-(4-Hydroxyphenyl)prop-2-enoic acid
Name: Trans-4-hydroxycinnamic acid
Class: unknown
Formula: C9H8O3
Exact mass: 164.04734411599998
SMILES: OC(=O)C=CC1=CC=C(O)C=C1
InChI: not available
Instrument: micrOTOF-Q
Instrument type: ESI-TOF
Precursor m/z: 165.055
Precursor type: [M+H]+
Base peak: 119.047
m/z	relative intensity
91.054	352
92.057	26
95.049	25
103.054	4
119.050	999
120.052	89
121.058	5
123.044	32
147.044	975
148.047	104
149.049	9
