Mass spectrum: S-2-Phenylpropionic acid; ; ESI-TOF; CE:10 eV; [M+H]+
Name: S-2-Phenylpropionic acid
Name: (S)-(+)-Hydratropic acid
Name: (S)-HTA
Class: unknown
Formula: C9H10O2
Exact mass: 150.06807956
SMILES: CC(C(=O)O)C=1C=CC=CC=1
InChI: not available
Instrument: micrOTOF-Q
Instrument type: ESI-TOF
Precursor m/z: 151.075
Precursor type: [M+H]+
Base peak: 151.076
m/z	relative intensity
151.075	999
152.079	99
153.081	9
