Mass spectrum: 2-Methoxyestrone; MS/MS; ESI-TOF; CE:-25 eV; [M-H]-
Name: 2-Methoxyestrone
Name: 2-Hydroxyestrone 2-methyl ether
Name: 3-Hydroxy-2-methoxy-Estra-1,3,5(10)-trien-17-one
Name: 2,3-Dihydroxy-1,3,5(10)-estratrien-17-one 2-methyl ether
Name: 2-Methoxy-17-oxoestra-1,3,5(10)-trien-3-ol
Name: 2-Methoxy-3-hydroxyestra-1,3,5(10)-trien-17-one
Name: 3-Hydroxy-2-methoxy-13-methyl-7,8,9,11,12,14,15,16-octahydro-6H-cyclopenta[a]phenanthren-17-one
Name: 3-Hydroxy-2-methoxy-1,3,5(10)-estratrien-17-one
Name: 3-Hydroxy-2-methoxyestra-1,3,5(10)-trien-17-one
Name: Methoxy-Estrone
Class: unknown
Formula: C19H24O3
Exact mass: 300.17254462799997
SMILES: [H]C23(CCC4(C)(C(=O)CCC4([H])(C3([H])(CCC=1C=C(O)C(=CC=12)OC))))
InChI: not available
Instrument: micrOTOF-Q
Instrument type: ESI-TOF
Precursor m/z: 299.163
Precursor type: [M-H]-
Base peak: 284.143
m/z	relative intensity
282.1237	41
284.1390	999
285.1419	168
286.1461	25
299.1619	188
300.1647	36
