Mass spectrum: Ferulicacid; ; ESI-TOF; CE:7 eV; [M+H]+
Name: Ferulicacid
Name: Ferulate,4-hydroxy-3-methoxycinnamic acid,3-methoxy-4-hydroxy-trans-cinnamate,(2E)-3-(4-hydroxy-3-methoxyphenyl)prop-2-enoic acid ,3-(4-hydroxy-3-methoxy-phenyl)prop-2-enoic acid,trans-4-hydroxy-3-methoxycinnamic acid
Class: unknown
Formula: C10H10O4
Exact mass: 194.0579088
SMILES: COC1=CC(C=CC(O)=O)=CC=C1(O)
InChI: not available
Instrument: micrOTOF-Q
Instrument type: ESI-TOF
Precursor m/z: 177.054
Precursor type: [M+H]+
Base peak: 177.055
m/z	relative intensity
89.038	1
117.035	3
122.096	2
134.034	1
145.029	53
146.033	5
149.057	13
150.063	1
153.054	8
163.040	2
176.504	3
177.056	999
178.058	103
179.060	11
181.951	2
194.058	5
195.066	338
196.069	35
197.071	5
201.021	2
216.039	2
217.047	107
218.050	12
219.059	3
235.059	51
236.062	6
