Mass spectrum: 2-Hydroxy-2-phenylpropionic acid; ; ESI-TOF; CE:10 eV; [M+H]+
Name: 2-Hydroxy-2-phenylpropionic acid
Name: 2-Hydroxy-2-phenylpropionic acid hemihydrate
Name: (2S)-2-Hydroxy-2-phenylpropanoic acid
Name: (1)-2-Phenyllactic acid
Name: (RS)-2-phenyllactic acid
Name: (RS)-2-phenyllactate
Name: 2-Hydroxy-2-phenyl-2-methylacetate
Name: (S)-Atrolactic acid
Name: 2-Hydroxy-2-phenylpropanoate
Name: 2-Hydroxy-2-phenylpropanoic acid
Name: Alpha-hydroxy-alpha-phenylpropionate
Name: 2-Hydroxy-2-phenylpropionate
Name: 2-Hydroxy-2-phenyl-2-methylacetic acid
Name: 2-Phenyllactate
Name: 2-Phenyllactic acid
Name: Alpha-methylmandelic acid
Name: Alpha-hydroxy-2-phenylpropionate
Name: 2-Phenyl-2-hydroxypropionic acid
Name: a-Phenyllactate
Name: a-Hydroxy-a-methylbenzeneacetate
Name: a-Hydroxy-a-methylbenzeneacetic acid
Name: a-Methylmandelic acid
Name: Atrolactinic acid
Name: 2-Phenyl-2-hydroxypropionate
Name: DL-alpha-phenyllactic acid
Name: a-Hydroxy-2-phenylpropionate
Name: DL-Atrolactic acid hemihydrate
Name: Alpha-hydroxy-2-phenylpropionic acid
Name: Alpha-methylmandelate
Name: Alpha-hydroxy-alpha-methylbenzeneacetate
Name: Alpha-hydroxy-alpha-phenylpropionic acid
Name: DL-a-methylmandelic acid
Name: DL-alpha-phenyllactate
Name: a-Hydroxy-2-phenylpropionic acid
Name: a-Hydroxy-a-phenylpropionate
Name: a-Hydroxy-a-phenylpropionic acid
Name: DL-2-phenyllactate
Name: Alpha-phenyllactate
Name: a-Phenyllactic acid
Name: Atrolactate
Name: Atrolactic acid
Name: a-Methylmandelate
Name: DL-a-phenyllactate
Name: DL-Atrolactate
Name: DL-2-phenyllactic acid
Name: DL-alpha-methylmandelate
Name: Alpha-hydroxy-alpha-methylbenzeneacetic acid
Name: DL-a-phenyllactic acid
Name: Alpha-phenyllactic acid
Name: DL-a-methylmandelate
Name: Atrolactinate
Name: DL-alpha-methylmandelic acid
Name: DL-Atrolactic acid
Name: Hydroxymethylmandelic acid
Class: unknown
Formula: C9H10O3
Exact mass: 166.06299417999998
SMILES: CC(O)(C(O)=O)C1=CC=CC=C1
InChI: not available
Instrument: micrOTOF-Q
Instrument type: ESI-TOF
Precursor m/z: 149.06
Precursor type: [M+H]+
Base peak: 149.058
m/z	relative intensity
77.038	4
95.049	8
102.046	5
103.054	259
104.057	23
105.047	6
120.080	13
121.065	61
122.071	6
131.049	80
132.052	8
149.060	999
150.063	94
151.065	7
162.090	4
167.069	36
168.069	4
171.041	54
172.044	6
177.040	4
189.052	586
190.056	50
191.059	7
251.106	63
252.110	12
297.114	108
298.119	20
299.120	3
