Mass spectrum: 3-Hydroxy-2-methylbutyric acid; ; ESI-TOF; CE:10 eV; [M-H]-
Name: 3-Hydroxy-2-methylbutyric acid
Class: unknown
Formula: C5H10O3
Exact mass: 118.06299417999999
SMILES: CC(O)C(C)C(O)=O
InChI: not available
Instrument: micrOTOF-Q
Instrument type: ESI-TOF
Precursor m/z: 117.055
Precursor type: [M-H]-
Base peak: 117.058
m/z	relative intensity
117.056	999
118.059	56
119.060	7
