Mass spectrum: m-Coumaric acid; ; ESI-TOF; CE:10 eV; [M-H]-
Name: m-Coumaric acid
Name: 3-Hydroxycinnamic acid
Name: (E)-3-(3-Hydroxyphenyl)prop-2-enoic acid
Name: 3- (3-Hydroxyphenyl)-2-propenoic acid
Name: 3-Coumarate
Name: 3-Coumaric acid
Name: m-Hydroxy-Cinnamic acid
Name: 3-(3-Hydroxyphenyl)acrylic acid
Name: Trans-3-hydroxycinnamate
Name: Trans-3-hydroxycinnamic acid
Class: unknown
Formula: C9H8O3
Exact mass: 164.04734411599998
SMILES: OC(=O)CCC=1C=CC=C(O)C=1
InChI: not available
Instrument: micrOTOF-Q
Instrument type: ESI-TOF
Precursor m/z: 165.054
Precursor type: [M-H]-
Base peak: 163.041
m/z	relative intensity
112.986	10
119.050	307
120.053	26
146.940	5
163.041	999
164.044	95
165.046	10
231.026	32
232.031	3
