Mass spectrum: 7-Methylxanthine; MS/MS; ESI-TOF; CE:10 eV; [M+H]+
Name: 7-Methylxanthine
Class: unknown
Formula: C6H6N4O2
Exact mass: 166.049075432
SMILES: CN2C=NC=1NC(=O)NC(=O)C=12
InChI: not available
Instrument: micrOTOF-Q
Instrument type: ESI-TOF
Precursor m/z: 167.057
Precursor type: [M+H]+
Base peak: 124.052
m/z	relative intensity
69.046	8
96.056	32
97.042	8
123.717	7
124.051	999
125.053	68
142.061	157
143.063	11
145.728	10
149.045	16
150.030	124
151.032	11
167.057	680
168.053	75
