Mass spectrum: (DL) 2-amino-3-phosphonopropionic acid; ; ESI-TOF; CE:10 eV; [M-H]-
Name: (DL) 2-amino-3-phosphonopropionic acid
Name: 2-Amino-3-phosphonopropionic acid
Name: 2-Amino-3-phosphonopropionate
Name: 3-Phosphono-DL-alanine
Name: 2-Amino-3-phosphonopropanoate
Name: DL-2-amino-3-phosphonopropionic acid
Name: AP-3
Name: Phosphonoalanine
Class: unknown
Formula: C3H8NO5P
Exact mass: 169.014008986
SMILES: NC(CP(O)(O)=O)C(O)=O
InChI: not available
Instrument: micrOTOF-Q
Instrument type: ESI-TOF
Precursor m/z: 168.007
Precursor type: [M-H]-
Base peak: 168.003
m/z	relative intensity
77.973	22
78.958	6
149.996	331
150.999	11
152.000	2
168.007	999
169.010	38
170.011	10
337.019	312
338.022	21
339.025	7
