Mass spectrum: 3-Methylglutaconic acid; ; ESI-TOF; CE:10 eV; [M-H]-
Name: 3-Methylglutaconic acid
Name: 3-Methyl-2-pentenedioic acid
Class: unknown
Formula: C6H8O4
Exact mass: 144.042258736
SMILES: CC(=CC(O)=O)CC(O)=O
InChI: not available
Instrument: micrOTOF-Q
Instrument type: ESI-TOF
Precursor m/z: 143.034
Precursor type: [M-H]-
Base peak: 143.035
m/z	relative intensity
143.035	999
144.038	67
145.040	10
