Mass spectrum: Caffeine; ; ESI-TOF; CE:10 eV; [M+H]+
Name: Caffeine
Name: 1,3,7-Trimethylxanthine
Class: unknown
Formula: C8H10N4O2
Exact mass: 194.08037556
SMILES: CN2C=NC1=C2(C(=O)N(C)C(=O)N1(C))
InChI: not available
Instrument: micrOTOF-Q
Instrument type: ESI-TOF
Precursor m/z: 129.029
Precursor type: [M+H]+
Base peak: 195.085
m/z	relative intensity
195.088	999
196.090	103
197.092	9
