Mass spectrum: Isoferulicacid; MS/MS; ESI-TOF; CE:10 eV; [M+H]+
Name: Isoferulicacid
Name: Hesperetic acid,Hespertitinic acid,3-hydroxy-4-methoxycinnamic acid  ,Cinnamic acid, 3-hydroxy-4-methoxy-,2-propenoic acid, 3-(3-hydroxy-4-methoxyphenyl)-,3-hydroxy-4-methoxycinnamic acid, predominantly trans ,
Class: unknown
Formula: C10H10O4
Exact mass: 194.0579088
SMILES: COC=1C=CC(C=CC(=O)O)=CC=1(O)
InChI: not available
Instrument: micrOTOF-Q
Instrument type: ESI-TOF
Precursor m/z: 177.056
Precursor type: [M+H]+
Base peak: 149.056
m/z	relative intensity
89.039	827
90.042	72
91.054	80
106.041	70
117.033	636
118.038	72
121.065	53
134.036	434
135.044	525
136.047	54
145.028	142
149.060	999
150.063	105
162.031	47
163.039	344
164.042	34
177.055	356
178.059	42
