Mass spectrum: 3-Methylindole; ; ESI-TOF; CE:10 eV; [M+H]+
Name: 3-Methylindole
Name: Skatole
Class: unknown
Formula: C9H9N
Exact mass: 131.073499288
SMILES: CC1=CNC=2C=CC=CC1=2
InChI: not available
Instrument: micrOTOF-Q
Instrument type: ESI-TOF
Precursor m/z: 147.065
Precursor type: [M+H]+
Base peak: 261.14
m/z	relative intensity
89.038	3
90.046	6
91.053	2
103.053	2
105.069	7
115.055	3
117.058	129
118.062	15
119.070	3
120.080	3
122.063	2
130.065	42
131.073	44
131.679	2
132.082	753
133.084	83
134.085	4
146.060	15
147.071	10
148.076	195
149.079	19
150.082	1
259.124	4
260.131	4
261.144	999
262.144	309
263.146	27
264.150	1
279.151	59
280.154	11
281.157	1
