Mass spectrum: N-Methyl-L-glutamicacid; MS/MS; ESI-TOF; CE:10 eV; [M-H]-
Name: N-Methyl-L-glutamicacid
Name: 2-(Methylamino)pentanedioic acid
Name: N-Methyl-L-glutamate;,
Class: unknown
Formula: C6H11NO4
Exact mass: 161.068807832
SMILES: CNC(CCC(O)=O)C(O)=O
InChI: not available
Instrument: micrOTOF-Q
Instrument type: ESI-TOF
Precursor m/z: 160.062
Precursor type: [M-H]-
Base peak: 116.072
m/z	relative intensity
85.028	20
88.039	8
98.059	14
101.024	13
114.055	26
116.071	999
117.074	56
142.050	364
143.053	25
160.061	46
