Mass spectrum: Indolpropionic acid; MS/MS; ESI-TOF; CE:10 eV; [M-H]-
Name: Indolpropionic acid
Class: unknown
Formula: C11H11NO2
Exact mass: 189.078978592
SMILES: O=C(O)CCC1=CNC=2C=CC=CC1=2
InChI: not available
Instrument: micrOTOF-Q
Instrument type: ESI-TOF
Precursor m/z: 188.071
Precursor type: [M-H]-
Base peak: 116.047
m/z	relative intensity
116.051	999
117.054	93
142.066	159
144.080	229
188.070	117
