Mass spectrum: Hesperidin; MS/MS; ESI-TOF; CE:29 eV; [M+H]+
Name: Hesperidin
Name: Hesperetin 7-O-rutinoside
Name: Ciratin
Name: Hesperetin 7-rhamnoglucoside
Name: D: 3594
Name: Hesperitin-7-rutinoside
Class: unknown
Formula: C28H34O15
Exact mass: 610.1897703879999
SMILES: COC1=CC=C(C=C1(O))C2CC(=O)C=3C(O)=CC(=CC=3(O2))OC5OC(COC4OC(C)C(O)C(O)C4(O))C(O)C(O)C5(O)
InChI: not available
Instrument: micrOTOF-Q
Instrument type: ESI-TOF
Precursor m/z: 611.196
Precursor type: [M+H]+
Base peak: 303.083
m/z	relative intensity
71.047	15
75.043	2
85.027	116
86.030	6
87.041	3
103.039	3
111.045	3
127.040	2
129.054	118
130.058	8
145.049	4
147.065	53
148.068	4
151.072	2
153.018	15
171.029	5
177.054	9
179.034	5
195.029	28
196.033	3
219.029	7
245.044	5
263.054	32
264.057	4
281.065	25
282.066	4
285.077	2
299.078	3
301.070	4
302.097	4
303.086	999
304.089	159
305.091	21
306.095	3
315.085	8
327.086	7
328.090	2
345.096	41
346.100	7
369.096	25
370.101	5
395.112	10
396.115	2
413.123	35
414.126	8
415.127	2
429.116	2
431.133	16
432.136	4
447.130	3
449.143	12
450.150	2
465.138	12
466.140	3
