Mass spectrum: Arbutin; ; ESI-TOF; CE:10 eV; [M+H]+
Name: Arbutin
Name: Ursin
Name: Arbutoside
Name: Hydroquinone-beta-D-glucopyranoside
Name: Hydroquinone-O-beta-D-glucopyranoside
Name: p-Arbutin
Name: p-Hydroxyphenyl-beta-D-glucopyranoside
Name: Uvasol
Name: (2R,3S,4S,5R,6S)-2-(Hydroxymethyl)-6-(4-hydroxyphenoxy)oxane-3,4,5-triol
Name: p-Hydroxyphenyl-beta-D-glucoside
Class: unknown
Formula: C12H16O7
Exact mass: 272.089602852
SMILES: OCC2OC(OC1=CC=C(O)C=C1)C(O)C(O)C2(O)
InChI: not available
Instrument: micrOTOF-Q
Instrument type: ESI-TOF
Precursor m/z: 146.046
Precursor type: [M+H]+
Base peak: 273.097
m/z	relative intensity
273.097	999
274.100	134
275.102	23
276.105	2
