Mass spectrum: Nicotinamide-N-oxide; ; ESI-TOF; CE:10 eV; [M+H]+
Name: Nicotinamide-N-oxide
Name: 1-Oxidopyridin-1-ium-3-carboxamide
Class: unknown
Formula: C6H6N2O2
Exact mass: 138.042927432
SMILES: NC(=O)C=1C=CC=[N+]([O-])C=1
InChI: not available
Instrument: micrOTOF-Q
Instrument type: ESI-TOF
Precursor m/z: 137.035
Precursor type: [M+H]+
Base peak: 139.046
m/z	relative intensity
106.028	8
121.063	4
122.032	5
139.050	999
140.052	72
141.054	7
146.961	5
149.023	12
159.970	8
161.032	23
163.941	5
179.041	4
180.101	5
181.952	21
