Mass spectrum: 5-Hydroxyanthranilic acid; MS/MS; ESI-TOF; CE:-18 eV; [M-H]-
Name: 5-Hydroxyanthranilic acid
Name: 2-Amino-5-hydroxybenzoate
Name: 2-Amino-5-hydroxybenzoicacid
Class: unknown
Formula: C7H7NO3
Exact mass: 153.042593084
SMILES: NC=1C=CC(O)=CC=1(C(=O)O)
InChI: not available
Instrument: micrOTOF-Q
Instrument type: ESI-TOF
Precursor m/z: 152.036
Precursor type: [M-H]-
Base peak: 107.035
m/z	relative intensity
94.028	23
107.037	999
108.044	440
109.043	28
122.025	32
152.035	26
