Mass spectrum: Lactulose; MS/MS; ESI-TOF; CE:10 eV; [M+H]+
Name: Lactulose
Name: 4-O-(Z)--D-Galactopyranosyl-D-fructofuranose,4-O-(Z)--D-Galactopyranosyl-D-fructose
Name: (2S,3R,4S,5R,6R)-2-[(2R,3S,4S,5R)-4,5-Dihydroxy-2,5-bis(hydroxymethyl)oxolan-3-yl]oxy-6-(hydroxymethyl)oxane-3,4,5-triol
Class: unknown
Formula: C12H22O11
Exact mass: 342.116211524
SMILES: OCC2OC(OC1C(CO)OC(O)(CO)C1(O))C(O)C(O)C2(O)
InChI: not available
Instrument: micrOTOF-Q
Instrument type: ESI-TOF
Precursor m/z: 649.219
Precursor type: [M+H]+
Base peak: 163.064
m/z	relative intensity
85.029	137
91.038	13
97.029	102
99.044	9
115.040	12
127.040	287
128.043	22
145.050	680
146.053	43
163.060	999
164.064	71
165.066	11
223.060	11
241.069	10
247.081	10
253.071	11
259.082	30
271.081	29
289.092	99
290.093	13
307.100	12
325.113	126
326.116	16
