Mass spectrum: Lipoicacid; ; ESI-TOF; CE:10 eV; [M+H]+
Name: Lipoicacid
Name: (Oct)-1,2-Dithiolane-3-pentanoic acid,6,8-Dithiooctanoic acid,DL-6,8-Thioctic acid,Lipoate,alpha-Lipoic acid,Thioctic acid,5-[(3S)-Dithiolan-3-yl]pentanoic acid
Class: unknown
Formula: C8H14O2S2
Exact mass: 206.043521688
SMILES: OC(=O)CCCCC1CCSS1
InChI: not available
Instrument: micrOTOF-Q
Instrument type: ESI-TOF
Precursor m/z: 207.051
Precursor type: [M+H]+
Base peak: 189.037
m/z	relative intensity
189.040	999
190.044	104
191.036	97
192.039	8
193.032	3
