Mass spectrum: 1-Methylxanthine; MS/MS; ESI-TOF; CE:10 eV; [M+H]+
Name: 1-Methylxanthine
Class: unknown
Formula: C6H6N4O2
Exact mass: 166.049075432
SMILES: CN1C(=O)NC=2N=CNC=2(C1(=O))
InChI: not available
Instrument: micrOTOF-Q
Instrument type: ESI-TOF
Precursor m/z: 167.057
Precursor type: [M+H]+
Base peak: 110.034
m/z	relative intensity
82.040	25
83.026	8
110.035	999
111.037	54
128.045	45
136.015	8
154.024	13
167.056	676
168.058	59
