Mass spectrum: 3-(3,4-Dihydroxyphenyl)propionic acid; ; ESI-TOF; CE:10 eV; [M+H]+
Name: 3-(3,4-Dihydroxyphenyl)propionic acid
Name: Dihydrocaffeic acid
Name: 3-(3,4-Dihydroxyphenyl)propanoate
Name: 3-(3,4-Dihydroxyphenyl)propionate
Name: 3-(3,4-Dihydroxyphenyl)propionic acid
Name: 3,4-Dihydroxy-(6CI,7CI,8CI)hydrocinnamate
Name: 3,4-Dihydroxy-(6CI,7CI,8CI)hydrocinnamic acid
Name: 3,4-Dihydroxybenzenepropanoic acid
Name: 3,4-Dihydroxybenzenepropionic acid
Name: 3,4-Dihydroxybenzenepropionate
Name: 3,4-Dihydroxyphenylpropionic acid
Name: 3,4-Dihydroxy-beta-phenylpropionate
Name: 3,4-Dihydroxy-beta-phenylpropionic acid
Name: 3,4-Dihydroxy-b-phenylpropionate
Name: 3,4-Dihydroxy-b-phenylpropionic acid
Name: 3,4-Dihydroxydihydrocinnamate
Name: 3,4-Dihydroxydihydrocinnamic acid
Name: 3,4-Dihydroxyhydrocinnamate
Name: 3,4-Dihydroxyhydrocinnamic acid
Name: 3,4-Dihydroxyphenylpropionate
Name: DHCA
Name: 3,4-HPA
Name: Dihydrocaffeate
Name: Hydrocaffeate
Name: Hydrocaffeic acid
Name: HYKOP
Class: unknown
Formula: C9H10O4
Exact mass: 182.0579088
SMILES: OC(=O)CCC=1C=CC(O)=C(O)C=1
InChI: not available
Instrument: micrOTOF-Q
Instrument type: ESI-TOF
Precursor m/z: 183.065
Precursor type: [M+H]+
Base peak: 183.069
m/z	relative intensity
183.065	999
184.069	100
185.070	13
