Mass spectrum: N-Methyltyramine; ; ESI-TOF; CE:10 eV; [M+H]+
Name: N-Methyltyramine
Name: Methyl-4-tyramine,4-hydroxy-N-methylphenethylamine,p-(2-methylaminoethyl)phenol ,para-(2-methylaminoethyl)phenol ,4-[2-(methylamino)ethyl]phenol
Class: unknown
Formula: C9H13NO
Exact mass: 151.099714036
SMILES: CNCCC=1C=CC(O)=CC=1
InChI: not available
Instrument: micrOTOF-Q
Instrument type: ESI-TOF
Precursor m/z: 152.107
Precursor type: [M+H]+
Base peak: 152.107
m/z	relative intensity
152.107	999
153.110	103
154.114	7
