Mass spectrum: D-Mannoheptulose; ; ESI-TOF; CE:10 eV; [M-H]-
Name: D-Mannoheptulose
Name: (+)-Mannoheptulose
Name: Alpha-D-Mannoheptulopyranose
Name: (D) Mannoheptulose
Name: Hept-2-ulose
Name: Mannoheptose
Name: D-Manno-2-heptulose
Class: unknown
Formula: C7H14O7
Exact mass: 210.07395278799999
SMILES: OCC1OC(O)(CO)C(O)C(O)C1(O)
InChI: not available
Instrument: micrOTOF-Q
Instrument type: ESI-TOF
Precursor m/z: 193.071
Precursor type: [M-H]-
Base peak: 209.063
m/z	relative intensity
209.067	999
210.070	80
211.071	17
212.074	1
