Mass spectrum: 3-Methylcatechol; MS/MS; ESI-TOF; CE:17 eV; [M+H]+
Name: 3-Methylcatechol
Name: 2,3-Dihydroxytoluene
Class: unknown
Formula: C7H8O2
Exact mass: 124.052429496
SMILES: CC1=CC=CC(O)=C1(O)
InChI: not available
Instrument: micrOTOF-Q
Instrument type: ESI-TOF
Precursor m/z: 124.051
Precursor type: [M+H]+
Base peak: 107.049
m/z	relative intensity
77.037	214
78.045	123
79.053	725
95.048	642
105.044	311
107.049	999
108.052	80
123.044	189
124.050	59
125.059	102
