Mass spectrum: Indolpropionic acid; MS/MS; ESI-TOF; CE:10 eV; [M+H]+
Name: Indolpropionic acid
Class: unknown
Formula: C11H11NO2
Exact mass: 189.078978592
SMILES: O=C(O)CCC1=CNC=2C=CC=CC1=2
InChI: not available
Instrument: micrOTOF-Q
Instrument type: ESI-TOF
Precursor m/z: 190.086
Precursor type: [M+H]+
Base peak: 130.062
m/z	relative intensity
130.065	999
131.068	115
144.080	13
172.075	49
190.086	12
