Mass spectrum: Cytidine-5'-diphosphocholine; MS/MS; ESI-TOF; CE:-24 eV; [M-H]-
Name: Cytidine-5'-diphosphocholine
Name: CDP-choline
Name: Citicoline
Name: Cytidine Diphosphate Choline
Class: unknown
Formula: C14H26N4O11P2
Exact mass: 488.10733091199995
SMILES: C[N+](C)(C)CCOP(=O)([O-])OP(=O)(O)OCC1OC(C(O)C1(O))N2C=CC(N)=NC2(=O)
InChI: not available
Instrument: micrOTOF-Q
Instrument type: ESI-TOF
Precursor m/z: 487.098
Precursor type: [M-H]-
Base peak: 428.022
m/z	relative intensity
78.955	20
96.967	18
110.036	13
122.985	29
172.939	11
184.940	18
192.989	16
304.032	339
305.034	42
336.057	65
383.996	45
385.013	12
402.007	13
416.024	35
428.023	999
429.026	116
430.028	27
487.097	27
