Mass spectrum: Dimethylsuccinic acid; ; ESI-TOF; CE:10 eV; [M+H]+
Name: Dimethylsuccinic acid
Name: Dimethylsuccinic acid
Class: unknown
Formula: C6H10O4
Exact mass: 146.0579088
SMILES: CC(C)(CC(O)=O)C(O)=O
InChI: not available
Instrument: micrOTOF-Q
Instrument type: ESI-TOF
Precursor m/z: 145.051
Precursor type: [M+H]+
Base peak: 147.065
m/z	relative intensity
77.006	9
95.016	9
101.059	37
113.964	9
119.050	16
128.951	7
129.054	200
130.057	17
131.974	10
137.027	27
146.663	7
146.967	8
147.065	999
148.069	67
149.025	31
159.969	7
161.060	23
163.941	9
168.574	7
169.047	930
170.050	60
171.053	9
