Mass spectrum: Erythritol; ; ESI-TOF; CE:10 eV; [M-H]-
Name: Erythritol
Name: Erythrol
Name: 1,2,3,4-Butanetetrol
Name: Butane-1,2,3,4-tetro
Name: Erythrite
Name: Meso-1,2,3,4-tetrahydroxybutane
Name: i-Erythritol
Name: Phycite
Name: Phycitol
Name: Meso-Erythritol
Class: unknown
Formula: C4H10O4
Exact mass: 122.05790879999999
SMILES: OCC(O)C(O)CO
InChI: not available
Instrument: micrOTOF-Q
Instrument type: ESI-TOF
Precursor m/z: 193.071
Precursor type: [M-H]-
Base peak: 141.062
m/z	relative intensity
88.039	15
89.023	16
95.061	5
101.023	15
102.054	11
103.039	3
119.034	6
121.050	283
122.044	12
124.991	4
130.995	4
141.066	999
142.068	71
143.069	7
151.060	49
152.061	3
157.061	52
158.064	3
