Mass spectrum: N-Acetyl-L-phenylalanine; ; ESI-TOF; CE:10 eV; [M-H]-
Name: N-Acetyl-L-phenylalanine
Name: (2S)-2-Acetamido-3-phenylpropanoic acid
Name: Acetyl-L-phenylalanine  ,L-N-acetylphenylalanine ,N-acetylphenylalanine ,N-acetyl-3-phenyl-L-Alanine,acetyl phenylalanine
Class: unknown
Formula: C11H13NO3
Exact mass: 207.08954327599997
SMILES: CC(=O)NC(CC=1C=CC=CC=1)C(O)=O
InChI: not available
Instrument: micrOTOF-Q
Instrument type: ESI-TOF
Precursor m/z: 206.082
Precursor type: [M-H]-
Base peak: 206.084
m/z	relative intensity
91.055	4
112.985	6
129.975	3
130.992	3
146.942	4
147.045	20
162.091	3
164.071	107
165.074	11
180.976	3
206.082	999
207.085	123
208.088	13
