Mass spectrum: 5-Hydroxyanthranilic acid; MS/MS; ESI-TOF; CE:18 eV; [M+H]+
Name: 5-Hydroxyanthranilic acid
Name: 2-Amino-5-hydroxybenzoate
Name: 2-Amino-5-hydroxybenzoicacid
Class: unknown
Formula: C7H7NO3
Exact mass: 153.042593084
SMILES: NC=1C=CC(O)=CC=1(C(=O)O)
InChI: not available
Instrument: micrOTOF-Q
Instrument type: ESI-TOF
Precursor m/z: 154.049
Precursor type: [M+H]+
Base peak: 136.037
m/z	relative intensity
68.012	20
80.047	21
81.032	41
106.028	94
107.033	8
108.044	603
109.047	42
134.023	8
136.039	999
137.042	90
138.044	7
152.034	66
153.039	8
