Mass spectrum: Rosmarinicacid; MS/MS; ESI-TOF; CE:10 eV; [M-H]-
Name: Rosmarinicacid
Name: Rosmarinate
Class: unknown
Formula: C18H16O8
Exact mass: 360.084517472
SMILES: OC(=O)C(CC1=CC=C(O)C(O)=C1)OC(=O)C=CC2=CC=C(O)C(O)=C2
InChI: not available
Instrument: micrOTOF-Q
Instrument type: ESI-TOF
Precursor m/z: 719.158
Precursor type: [M-H]-
Base peak: 161.028
m/z	relative intensity
72.992	1
123.044	1
133.029	12
134.033	1
135.045	16
136.048	2
151.039	10
161.025	999
162.027	91
163.029	8
177.019	24
178.024	2
179.034	70
180.038	6
197.045	381
198.048	34
199.050	5
215.055	7
223.024	7
267.063	3
313.071	2
359.075	493
360.078	82
361.080	14
362.081	2
