Mass spectrum: Myo-inositol; MS/MS; ESI-TOF; CE:10 eV; [M-H]-
Name: Myo-inositol
Name: Inositol,i-inositol  ,inositol-myo,meso-inositol,Dambose,mesoinositol  ,iso-inositol,Phaseomannitol,Phaseomannite,Mesoinosit,Mesoinosite,1,2,3,5/4,6-hexahydroxycyclohexane,,
Class: unknown
Formula: C6H12O6
Exact mass: 180.06338810399998
SMILES: OC1C(O)C(O)C(O)C(O)C1(O)
InChI: not available
Instrument: micrOTOF-Q
Instrument type: ESI-TOF
Precursor m/z: 179.055
Precursor type: [M-H]-
Base peak: 179.052
m/z	relative intensity
85.028	24
87.008	161
97.027	13
99.007	37
101.023	22
117.019	70
125.023	47
141.018	39
159.029	34
161.044	270
162.047	18
177.040	26
179.055	999
180.058	71
181.060	15
