Mass spectrum: Gentisic acid; MS/MS; ESI-TOF; CE:18 eV; [M+H]+
Name: Gentisic acid
Name: 2,5-Dihydroxybenzoate
Name: 2,5-Dioxybenzoate
Name: 2,5-Dioxybenzoic acid
Name: 5-Hydroxysalicylic acid
Name: Carboxyhydroquinone
Name: Gentisate
Name: Hydroquinonecarboxylic acid
Class: unknown
Formula: C7H6O4
Exact mass: 154.026608672
SMILES: OC1=CC=C(O)C(=C1)C(O)=O
InChI: not available
Instrument: micrOTOF-Q
Instrument type: ESI-TOF
Precursor m/z: 155.034
Precursor type: [M+H]+
Base peak: 137.023
m/z	relative intensity
81.033	157
96.021	38
109.028	97
111.043	41
121.041	15
127.040	102
137.024	999
138.028	82
155.033	15
