Mass spectrum: Salicyl amide; MS/MS; ESI-TOF; CE:10 eV; [M+H]+
Name: Salicyl amide
Class: unknown
Formula: C7H7NO2
Exact mass: 137.047678464
SMILES: NC(=O)C1=CC=CC=C1(O)
InChI: not available
Instrument: micrOTOF-Q
Instrument type: ESI-TOF
Precursor m/z: 138.055
Precursor type: [M+H]+
Base peak: 121.031
m/z	relative intensity
93.033	28
95.049	47
111.044	25
121.029	999
122.032	78
123.033	8
124.397	7
138.055	85
139.043	18
