Mass spectrum: 1,2,4-Trihydroxybenzol; MS/MS; ESI-TOF; CE:17 eV; [M+H]+
Name: 1,2,4-Trihydroxybenzol
Name: Hydroxyhydroquinone
Name: 1,2,4-Benzenetriol,
Name: 1,2,4-Trihydroxybenzene
Name: Hydroxyquinol
Class: unknown
Formula: C6H6O3
Exact mass: 126.03169405199999
SMILES: OC1=CC=C(O)C(O)=C1
InChI: not available
Instrument: micrOTOF-Q
Instrument type: ESI-TOF
Precursor m/z: 109.028
Precursor type: [M+H]+
Base peak: 81.0335
m/z	relative intensity
81.033	999
82.036	57
109.027	150
