Mass spectrum: N-Acetyl-L-glutamine; ; ESI-TOF; CE:10 eV; [M-H]-
Name: N-Acetyl-L-glutamine
Name: (2S)-2-Acetamido-5-amino-5-oxopentanoic acid
Class: unknown
Formula: C7H12N2O4
Exact mass: 188.079706864
SMILES: CC(=O)NC(CCC(N)=O)C(O)=O
InChI: not available
Instrument: micrOTOF-Q
Instrument type: ESI-TOF
Precursor m/z: 189.087
Precursor type: [M-H]-
Base peak: 187.074
m/z	relative intensity
88.987	7
125.072	31
126.074	2
127.052	34
128.039	7
143.082	19
145.062	51
146.065	3
146.939	3
169.062	51
170.057	6
187.073	999
188.076	83
189.077	10
