Mass spectrum: Ibuprofen; ; ESI-TOF; CE:10 eV; [M-H]-
Name: Ibuprofen
Name: 2-[4-(2-Methylpropyl)phenyl]propanoic acid
Name: a-Methyl-4-(isobutyl)phenylacetic acid
Class: unknown
Formula: C13H18O2
Exact mass: 206.130679816
SMILES: CC(C)CC1=CC=C(C=C1)C(C)C(O)=O
InChI: not available
Instrument: micrOTOF-Q
Instrument type: ESI-TOF
Precursor m/z: 205.123
Precursor type: [M-H]-
Base peak: 205.118
m/z	relative intensity
112.987	3
116.929	9
119.049	3
137.023	4
143.086	6
149.097	4
159.117	203
160.120	26
161.126	5
175.113	9
194.082	21
203.107	7
205.123	999
206.126	130
207.129	13
245.114	3
273.109	114
274.112	17
