Mass spectrum: Lipoicacid; MS/MS; ESI-TOF; CE:10 eV; [M+H]+
Name: Lipoicacid
Name: (Oct)-1,2-Dithiolane-3-pentanoic acid,6,8-Dithiooctanoic acid,DL-6,8-Thioctic acid,Lipoate,alpha-Lipoic acid,Thioctic acid,5-[(3S)-Dithiolan-3-yl]pentanoic acid
Class: unknown
Formula: C8H14O2S2
Exact mass: 206.043521688
SMILES: OC(=O)CCCCC1CCSS1
InChI: not available
Instrument: micrOTOF-Q
Instrument type: ESI-TOF
Precursor m/z: 161.045
Precursor type: [M+H]+
Base peak: 127.057
m/z	relative intensity
67.056	56
73.012	69
77.040	33
78.969	20
79.055	54
81.071	145
85.011	350
86.018	27
87.026	131
91.055	235
93.070	757
94.074	65
95.075	86
99.026	123
101.042	989
102.045	60
103.038	46
104.983	316
105.041	54
106.979	29
115.057	126
118.998	76
127.057	999
128.060	97
129.054	44
161.045	669
162.048	63
163.042	67
