Mass spectrum: D-Erythronolactone; ; ESI-TOF; CE:10 eV; [M-H]-
Name: D-Erythronolactone
Name: (3R,4R)-3,4-Dihydroxyoxolan-2-one
Class: unknown
Formula: C4H6O4
Exact mass: 118.026608672
SMILES: OC1COC(=O)C1(O)
InChI: not available
Instrument: micrOTOF-Q
Instrument type: ESI-TOF
Precursor m/z: 316.251
Precursor type: [M-H]-
Base peak: 135.033
m/z	relative intensity
72.991	3
75.007	124
76.011	3
87.008	3
89.023	13
99.008	4
105.019	16
115.039	4
117.019	273
118.022	11
119.024	3
135.030	999
136.033	48
137.034	13
