Mass spectrum: Erythritol; MS/MS; ESI-TOF; CE:7 eV; [M+H]+
Name: Erythritol
Name: Erythrol
Name: 1,2,3,4-Butanetetrol
Name: Butane-1,2,3,4-tetro
Name: Erythrite
Name: Meso-1,2,3,4-tetrahydroxybutane
Name: i-Erythritol
Name: Phycite
Name: Phycitol
Name: Meso-Erythritol
Class: unknown
Formula: C4H10O4
Exact mass: 122.05790879999999
SMILES: OCC(O)C(O)CO
InChI: not available
Instrument: micrOTOF-Q
Instrument type: ESI-TOF
Precursor m/z: 123.054
Precursor type: [M+H]+
Base peak: 87.042
m/z	relative intensity
69.033	96
87.043	999
105.055	270
122.071	116
123.066	102
