Mass spectrum: BOC Valine; MS/MS; ESI-TOF; CE:10 eV; [M+H]+
Name: BOC Valine
Class: unknown
Formula: C10H19NO4
Exact mass: 217.131408088
SMILES: CC(C)C(NC(=O)OC(C)(C)C)C(O)=O
InChI: not available
Instrument: micrOTOF-Q
Instrument type: ESI-TOF
Precursor m/z: 218.139
Precursor type: [M+H]+
Base peak: 72.0828
m/z	relative intensity
72.082	999
98.058	421
116.072	801
