Mass spectrum: Gly-pro; MS/MS; ESI-TOF; CE:19 eV; [M+H]+
Name: Gly-pro
Name: Glycylproline
Name: 1-Glycyl-L-Proline
Name: Glycyl-L-proline
Name: N-Glycyl-L-proline
Name: 1-(2-Aminoacetyl)pyrrolidine-2-carboxylic acid
Name: 1-Glycyl-(9CI)L-Proline
Class: unknown
Formula: C7H12N2O3
Exact mass: 172.084792244
SMILES: NCC(=O)N1CCCC1(C(O)=O)
InChI: not available
Instrument: micrOTOF-Q
Instrument type: ESI-TOF
Precursor m/z: 173.094
Precursor type: [M+H]+
Base peak: 116.07
m/z	relative intensity
68.049	2
70.064	365
71.067	19
115.722	2
116.071	999
117.074	65
118.076	5
127.087	20
128.084	2
173.093	30
174.096	2
