Mass spectrum: Naringin; MS/MS; ESI-TOF; CE:23 eV; [M+H]+
Name: Naringin
Class: unknown
Formula: C27H32O14
Exact mass: 580.179205704
SMILES: CC5OC(OC4C(O)C(O)C(CO)OC4(OC=1C=C(O)C=2C(=O)CC(OC=2(C=1))C3=CC=C(O)C=C3))C(O)C(O)C5(O)
InChI: not available
Instrument: micrOTOF-Q
Instrument type: ESI-TOF
Precursor m/z: 273.076
Precursor type: [M+H]+
Base peak: 153.019
m/z	relative intensity
119.049	39
123.044	30
147.044	439
148.047	41
153.018	999
154.022	73
171.029	155
273.075	200
274.080	32
