Mass spectrum: Isonicotinicacid; ; ESI-TOF; CE:10 eV; [M+H]+
Name: Isonicotinicacid
Name: 4-Picolinic acid,pyridine-4-carboxylic acid
Class: unknown
Formula: C6H5NO2
Exact mass: 123.0320284
SMILES: OC(=O)C=1C=CN=CC=1
InChI: not available
Instrument: micrOTOF-Q
Instrument type: ESI-TOF
Precursor m/z: 124.04
Precursor type: [M+H]+
Base peak: 124.042
m/z	relative intensity
124.039	999
125.043	69
126.044	6
