Mass spectrum: Isethionicacid; ; ESI-TOF; CE:10 eV; [M-H]-
Name: Isethionicacid
Name: 2-Hydroxyethanesulfonate,2-hydroxyethanesulfonic acid,2-hydroxyethane-1-sulfonic acid,2-hydroxyethane-1-sulfonate,Isethionate
Class: unknown
Formula: C2H6O4S
Exact mass: 125.998679672
SMILES: OCCS(O)(=O)=O
InChI: not available
Instrument: micrOTOF-Q
Instrument type: ESI-TOF
Precursor m/z: 230.139
Precursor type: [M-H]-
Base peak: 124.995
m/z	relative intensity
124.991	999
125.994	32
126.989	54
127.992	1
