Mass spectrum: 1-Methyladenosine; ; ESI-TOF; CE:10 eV; [M-H]-
Name: 1-Methyladenosine
Name: 1-Methyl-adenosine
Name: N,6-Didehydro-1,6-dihydro-1-methyladenosine
Name: N1-Methyladenosine
Name: (2R,3S,4R,5R)-2-(Hydroxymethyl)-5-(6-imino-1-methylpurin-9-yl)oxolane-3,4-diol
Name: N,6-Didehydro-1,6-dihydro-1-methyl-Adenosine
Class: unknown
Formula: C11H15N5O4
Exact mass: 281.11240396
SMILES: CN3C=NC1=C(N=CN1C2OC(CO)C(O)C2(O))C3(=N)
InChI: not available
Instrument: micrOTOF-Q
Instrument type: ESI-TOF
Precursor m/z: 282.122
Precursor type: [M-H]-
Base peak: 326.103
m/z	relative intensity
75.006	3
83.023	4
87.006	2
89.022	31
98.023	1
106.028	1
107.035	10
112.986	3
126.904	3
132.031	3
133.035	4
148.062	478
149.064	36
150.068	1
280.105	595
281.106	77
282.109	9
326.110	999
327.112	143
328.114	21
329.117	2
