Mass spectrum: 3-Hydroxysebacic acid; MS/MS; ESI-TOF; CE:-20 eV; [M-H]-
Name: 3-Hydroxysebacic acid
Name: Hydroxy-decanedioic acid
Class: unknown
Formula: C10H18O5
Exact mass: 218.11542367599998
SMILES: OC(=O)CCCCCCC(O)CC(O)=O
InChI: not available
Instrument: micrOTOF-Q
Instrument type: ESI-TOF
Precursor m/z: 217.108
Precursor type: [M-H]-
Base peak: 157.086
m/z	relative intensity
111.081	12
113.096	29
137.096	7
139.075	8
155.107	268
156.110	24
157.086	999
158.089	73
159.092	8
199.097	16
217.107	28
