Mass spectrum: 3-Methoxytyramine; ; ESI-TOF; CE:10 eV; [M+H]+
Name: 3-Methoxytyramine
Name: 3-Methoxy-4-hydroxyphenethylamine hydrochloride
Name: 3-MT
Name: 4-(2-Aminoethyl)-2-methoxy-phenol
Name: 4-(2-Aminoethyl)-2-methoxyphenol hydrochloride
Name: Methoxytyramine
Class: unknown
Formula: C9H13NO2
Exact mass: 167.094628656
SMILES: COC1=CC(CCN)=CC=C1(O)
InChI: not available
Instrument: micrOTOF-Q
Instrument type: ESI-TOF
Precursor m/z: 151.078
Precursor type: [M+H]+
Base peak: 168.101
m/z	relative intensity
168.102	999
169.105	103
170.107	9
