Mass spectrum: Homogentisic acid; MS/MS; ESI-TOF; CE:-19 eV; [M-H]-
Name: Homogentisic acid
Name: 2,5-Dihydroxyphenylacetic acid
Name: 2,5-Dihydroxyphenylacetate
Name: Homogentisate
Class: unknown
Formula: C8H8O4
Exact mass: 168.042258736
SMILES: OC(=O)CC=1C=C(O)C=CC=1(O)
InChI: not available
Instrument: micrOTOF-Q
Instrument type: ESI-TOF
Precursor m/z: 167.034
Precursor type: [M-H]-
Base peak: 123.047
m/z	relative intensity
108.021	279
109.028	98
122.037	951
123.044	999
124.047	81
137.024	75
