Mass spectrum: (L) Tyrosyl-L-leucine; ; ESI-TOF; CE:10 eV; [M-H]-
Name: (L) Tyrosyl-L-leucine
Name: (2S)-2-[[(2S)-2-Amino-3-(4-hydroxyphenyl)propanoyl]amino]-4-methylpentanoic acid
Name: Tyr-Leu
Class: unknown
Formula: C15H22N2O4
Exact mass: 294.157957184
SMILES: CC(C)CC(NC(=O)C(N)CC=1C=CC(O)=CC=1)C(=O)O
InChI: not available
Instrument: micrOTOF-Q
Instrument type: ESI-TOF
Precursor m/z: 295.165
Precursor type: [M-H]-
Base peak: 293.148
m/z	relative intensity
146.941	4
293.150	999
294.153	156
295.155	19
315.132	8
361.137	6
393.075	5
587.310	513
588.313	165
589.314	30
590.320	5
609.291	24
610.297	8
