Mass spectrum: 2-Phenylacetamide; MS/MS; ESI-TOF; CE:17 eV; [M+H]+
Name: 2-Phenylacetamide
Name: 2-Phenyl acetamide
Class: unknown
Formula: C8H9NO
Exact mass: 135.068413908
SMILES: NC(=O)CC=1C=CC=CC=1
InChI: not available
Instrument: micrOTOF-Q
Instrument type: ESI-TOF
Precursor m/z: 91.0546
Precursor type: [M+H]+
Base peak: 91.0523
m/z	relative intensity
65.038	62
91.054	999
92.057	105
