Mass spectrum: 5-Hydroxymethylfurfural; ; ESI-TOF; CE:10 eV; [M+H]+
Name: 5-Hydroxymethylfurfural
Name: 5-Oxymethylfurfurole
Name: 2-Hydroxymethyl-5-furfural
Name: 5-(Hyddroxymethyl)furfurole
Name: 5-(Hydroxymethyl)-2-furfural
Name: 5-(Hydroxymethyl)furfural
Name: 5-Hydroxymethyl-2-furaldehyde
Name: 5-Hydroxymethylfuraldehyde
Name: HMF
Name: Hydroxymethylfurfural
Name: Hydroxymethylfurfuraldehyde
Name: Hydroxymethylfurfurole
Class: unknown
Formula: C6H6O3
Exact mass: 126.03169405199999
SMILES: O=CC1=CC=C(CO)O1
InChI: not available
Instrument: micrOTOF-Q
Instrument type: ESI-TOF
Precursor m/z: 127.04
Precursor type: [M+H]+
Base peak: 109.026
m/z	relative intensity
81.033	197
82.036	13
97.030	3
99.044	3
108.705	3
109.029	999
110.032	70
111.034	7
126.032	4
126.660	2
127.039	720
128.042	46
129.043	6
164.024	51
164.526	8
165.019	2
209.030	62
209.531	14
210.040	6
210.542	2
211.033	2
226.022	122
226.524	27
227.022	35
227.523	9
228.020	14
228.522	3
229.015	3
305.985	80
306.491	2
306.991	76
307.994	11
308.996	5
323.996	167
325.002	94
326.004	16
327.004	13
328.005	2
329.001	5
342.006	101
343.010	15
344.009	3
