Mass spectrum: Triethanolamine; ; ESI-TOF; CE:10 eV; [M+H]+
Name: Triethanolamine
Name: 2,2',2''-Nitrilotriethanol
Name: Alkanolamine
Name: Stingkill
Name: Trolamine
Name: Tris(2-hydroxyethyl)amine
Class: unknown
Formula: C6H15NO3
Exact mass: 149.10519334
SMILES: OCCN(CCO)CCO
InChI: not available
Instrument: micrOTOF-Q
Instrument type: ESI-TOF
Precursor m/z: 150.113
Precursor type: [M+H]+
Base peak: 150.113
m/z	relative intensity
70.065	3
88.075	15
106.086	3
106.992	2
113.963	2
114.092	8
118.087	1
125.003	5
130.086	1
131.974	2
132.102	99
133.105	7
141.958	2
146.960	2
149.023	3
149.652	2
150.113	999
151.116	66
152.117	7
172.094	111
173.097	9
174.973	2
