Mass spectrum: N-Acetylisatin; ; ESI-TOF; CE:10 eV; [M-H]-
Name: N-Acetylisatin
Name: 1-Acetylisatin
Name: Acetylisatin
Name: 1-Acetyl-indole-2,3-dione
Name: D: 11321
Class: unknown
Formula: C10H7NO3
Exact mass: 189.04259308399998
SMILES: CC(=O)N2C(=O)C(=O)C=1C=CC=CC=12
InChI: not available
Instrument: micrOTOF-Q
Instrument type: ESI-TOF
Precursor m/z: 273.243
Precursor type: [M-H]-
Base peak: 206.05
m/z	relative intensity
188.035	999
189.038	114
190.041	14
