Mass spectrum: Isonicotinicacid; MS/MS; ESI-TOF; CE:10 eV; [M-H]-
Name: Isonicotinicacid
Name: 4-Picolinic acid,pyridine-4-carboxylic acid
Class: unknown
Formula: C6H5NO2
Exact mass: 123.0320284
SMILES: OC(=O)C=1C=CN=CC=1
InChI: not available
Instrument: micrOTOF-Q
Instrument type: ESI-TOF
Precursor m/z: 122.025
Precursor type: [M-H]-
Base peak: 78.0369
m/z	relative intensity
78.034	999
94.029	119
122.025	318
