Mass spectrum: Rosmarinicacid; ; ESI-TOF; CE:10 eV; [M+H]+
Name: Rosmarinicacid
Name: Rosmarinate
Class: unknown
Formula: C18H16O8
Exact mass: 360.084517472
SMILES: OC(=O)C(CC1=CC=C(O)C(O)=C1)OC(=O)C=CC2=CC=C(O)C(O)=C2
InChI: not available
Instrument: micrOTOF-Q
Instrument type: ESI-TOF
Precursor m/z: 153.076
Precursor type: [M+H]+
Base peak: 361.094
m/z	relative intensity
361.092	999
362.095	199
363.098	35
364.099	4
