Mass spectrum: Hesperidin; MS/MS; ESI-TOF; CE:-35 eV; [M-H]-
Name: Hesperidin
Name: Hesperetin 7-O-rutinoside
Name: Ciratin
Name: Hesperetin 7-rhamnoglucoside
Name: D: 3594
Name: Hesperitin-7-rutinoside
Class: unknown
Formula: C28H34O15
Exact mass: 610.1897703879999
SMILES: COC1=CC=C(C=C1(O))C2CC(=O)C=3C(O)=CC(=CC=3(O2))OC5OC(COC4OC(C)C(O)C(O)C4(O))C(O)C(O)C5(O)
InChI: not available
Instrument: micrOTOF-Q
Instrument type: ESI-TOF
Precursor m/z: 609.182
Precursor type: [M-H]-
Base peak: 301.074
m/z	relative intensity
125.024	1
242.058	1
257.081	2
283.061	1
286.048	5
301.072	999
302.074	159
303.077	21
304.079	2
315.086	1
325.071	17
326.073	4
343.081	14
344.084	3
355.081	1
609.179	21
610.182	6
611.184	2
