Mass spectrum: N-Acetylarginine; ; ESI-TOF; CE:10 eV; [M-H]-
Name: N-Acetylarginine
Name: N2-Acetyl-L-arginine ,N-alpha-L-acetyl-arginine ,N-acetyl-L-arginine ,
Class: unknown
Formula: C8H16N4O3
Exact mass: 216.122240372
SMILES: CC(=O)NC(CCCN=C(N)N)C(O)=O
InChI: not available
Instrument: micrOTOF-Q
Instrument type: ESI-TOF
Precursor m/z: 217.131
Precursor type: [M-H]-
Base peak: 215.111
m/z	relative intensity
215.115	999
216.118	104
217.119	11
