Mass spectrum: Gallic acid; ; ESI-TOF; CE:10 eV; [M-H]-
Name: Gallic acid
Name: Gallate
Name: 3,4,5-Trihydroxybenzoate
Name: 3,4,5-Trihydroxybenzoic acid
Name: Pyrogallol-5-carboxylic acid
Class: unknown
Formula: C7H6O5
Exact mass: 170.02152329199998
SMILES: OC(=O)C1=CC(O)=C(O)C(O)=C1
InChI: not available
Instrument: micrOTOF-Q
Instrument type: ESI-TOF
Precursor m/z: 173.094
Precursor type: [M-H]-
Base peak: 169.014
m/z	relative intensity
88.987	4
124.016	2
125.024	141
126.028	9
146.940	3
169.015	999
170.017	76
171.019	13
