Mass spectrum: 5-Hydroxyanthranilic acid; MS/MS; ESI-TOF; CE:18 eV; [M+H]+
Name: 5-Hydroxyanthranilic acid
Name: 2-Amino-5-hydroxybenzoate
Name: 2-Amino-5-hydroxybenzoicacid
Class: unknown
Formula: C7H7NO3
Exact mass: 153.04259308399998
SMILES: NC=1C=CC(O)=CC=1(C(=O)O)
InChI: not available
Instrument: micrOTOF-Q
Instrument type: ESI-TOF
Precursor m/z: 136.04
Precursor type: [M+H]+
Base peak: 108.045
m/z	relative intensity
68.012	158
69.015	8
80.048	132
81.033	315
82.036	20
90.034	7
106.029	5
108.045	999
109.048	73
110.050	4
126.056	3
136.040	150
137.045	14
