Mass spectrum: N-Methyltryptamine; ; ESI-TOF; CE:10 eV; [M+H]+
Name: N-Methyltryptamine
Name: 3-(2-(Methylamino)ethyl)indole,3-(2-methylaminoethyl)indole,3-(2-[methylamino]ethyl)indole ,Dipterine ,methyltryptamine  ,N-monomethyltryptamine ,N-omega-methyltryptamine ,dl-methyltryptamine
Class: unknown
Formula: C11H14N2
Exact mass: 174.115698448
SMILES: CN2C=C(CCN)C1=CC=CC=C12
InChI: not available
Instrument: micrOTOF-Q
Instrument type: ESI-TOF
Precursor m/z: 175.123
Precursor type: [M+H]+
Base peak: 144.08
m/z	relative intensity
115.054	8
116.057	1
117.061	16
118.066	8
130.064	5
131.071	3
132.080	300
133.083	29
134.083	1
142.065	1
143.072	15
143.640	3
144.082	999
145.083	132
146.085	6
149.023	1
155.060	3
174.576	2
175.123	554
176.125	71
177.128	4
