Mass spectrum: Phenylacetylglycine; ; ESI-TOF; CE:10 eV; [M+H]+
Name: Phenylacetylglycine
Name: PAG
Name: Phenaceturic acid, phenacetylglycine, 2-[(2-phenylacetyl)amino]acetic acid
Name: CBDivE_012851, CHEbi:27480, MolPort-000-872-512, AIDS018669, HMS1433M15, AIDS-018669, NSC92778, EineCS 207-916-1, NSC408424
Name: NSC408424, IDI1_012370, AI3-23422, P0131, C05598, T5432838, 500-98-1
Name: Phenylacetylglycine, N-phenacetylglycine, N-phenylacetylglycine, N-(phenylacetyl)glycine, glycine, N-(phenylacetyl)-, Maybridge3_000983, Oprea1_379108, Oprea1_678863
Class: unknown
Formula: C10H11NO3
Exact mass: 193.07389321199997
SMILES: OC(=O)CNC(=O)CC=1C=CC=CC=1
InChI: not available
Instrument: micrOTOF-Q
Instrument type: ESI-TOF
Precursor m/z: 194.082
Precursor type: [M+H]+
Base peak: 194.079
m/z	relative intensity
76.040	241
77.043	9
91.054	112
92.058	8
119.050	6
121.065	5
146.961	5
148.075	13
149.023	15
159.969	5
176.070	24
181.952	14
194.082	999
195.084	113
196.086	13
201.058	9
216.063	338
217.067	38
