Mass spectrum: Dihydrothymine; ; ESI-TOF; CE:10 eV; [M+H]+
Name: Dihydrothymine
Name: 5,6-Dihydrothymine
Name: 5,6-Dihydro-5-methyluracil
Name: 5-Methyl-1,3-diazinane-2,4-dione
Name: 5-Methyldihydropyrimidine-2,4(1H,3H)-dione
Class: unknown
Formula: C5H8N2O2
Exact mass: 128.058577496
SMILES: CC1CNC(=O)NC1(=O)
InChI: not available
Instrument: micrOTOF-Q
Instrument type: ESI-TOF
Precursor m/z: 129.066
Precursor type: [M+H]+
Base peak: 129.067
m/z	relative intensity
129.066	999
130.069	63
131.070	6
