Mass spectrum: p-Coumaric acid; MS/MS; ESI-TOF; CE:-17 eV; [M-H]-
Name: p-Coumaric acid
Name: Para-Coumaric acid
Name: Para-Coumarate
Name: 4-Hydroxycinnamic acid
Name: p-Coumarate
Name: Para-hydroxycinnamic acid
Name: 4-Coumarate
Name: 4-Hydroxycinnamate
Name: Trans-4-hydroxycinnamate
Name: (E)-3-(4-Hydroxyphenyl)prop-2-enoic acid
Name: Trans-4-hydroxycinnamic acid
Class: unknown
Formula: C9H8O3
Exact mass: 164.04734411599998
SMILES: OC(=O)C=CC1=CC=C(O)C=C1
InChI: not available
Instrument: micrOTOF-Q
Instrument type: ESI-TOF
Precursor m/z: 119.05
Precursor type: [M-H]-
Base peak: 119.051
m/z	relative intensity
89.039	5
91.053	31
93.032	109
94.035	8
104.024	12
117.035	42
119.050	999
120.053	77
