Mass spectrum: Deoxycytidine; ; ESI-TOF; CE:10 eV; [M+H]+
Name: Deoxycytidine
Name: 2'-Deoxycytidine
Name: 2'-Deoxy-cytidine
Name: 2-Deoxycytidine
Name: Cytosine deoxyribonucleoside
Name: Cytosine deoxyriboside
Name: DC
Name: DCYD
Name: Deoxyribose cytidine
Name: D-Cytidine
Name: Desoxycytidine
Class: unknown
Formula: C9H13N3O4
Exact mass: 227.090605896
SMILES: NC=1C=CN(C(=O)N=1)C2CC(O)C(CO)O2
InChI: not available
Instrument: micrOTOF-Q
Instrument type: ESI-TOF
Precursor m/z: 112.051
Precursor type: [M+H]+
Base peak: 228.094
m/z	relative intensity
228.098	999
229.101	111
230.103	14
231.105	1
