Mass spectrum: Gly-pro; ; ESI-TOF; CE:10 eV; [M-H]-
Name: Gly-pro
Name: Glycylproline
Name: 1-Glycyl-L-Proline
Name: Glycyl-L-proline
Name: N-Glycyl-L-proline
Name: 1-(2-Aminoacetyl)pyrrolidine-2-carboxylic acid
Name: 1-Glycyl-(9CI)L-Proline
Class: unknown
Formula: C7H12N2O3
Exact mass: 172.08479224399997
SMILES: NCC(=O)N1CCCC1(C(O)=O)
InChI: not available
Instrument: micrOTOF-Q
Instrument type: ESI-TOF
Precursor m/z: 173.094
Precursor type: [M-H]-
Base peak: 171.076
m/z	relative intensity
96.044	8
114.055	84
115.059	4
123.055	2
125.071	2
127.087	13
145.098	1
171.078	999
172.080	79
173.081	8
