Mass spectrum: N-Methyl-L-glutamicacid; ; ESI-TOF; CE:10 eV; [M-H]-
Name: N-Methyl-L-glutamicacid
Name: 2-(Methylamino)pentanedioic acid
Name: N-Methyl-L-glutamate;,
Class: unknown
Formula: C6H11NO4
Exact mass: 161.068807832
SMILES: CNC(CCC(O)=O)C(O)=O
InChI: not available
Instrument: micrOTOF-Q
Instrument type: ESI-TOF
Precursor m/z: 160.062
Precursor type: [M-H]-
Base peak: 160.063
m/z	relative intensity
85.029	2
88.986	2
98.059	1
114.055	3
116.071	144
117.074	8
129.019	2
130.087	17
142.051	438
143.054	28
144.055	3
156.066	3
160.062	999
161.064	67
162.066	10
174.076	82
175.079	7
321.126	2
