Mass spectrum: Trigonelline; MS/MS; ESI-TOF; CE:20 eV; [M+H]+
Name: Trigonelline
Class: unknown
Formula: C7H8NO2
Exact mass: 138.055503496
SMILES: C[N+]1=CC=CC(=C1)C(O)=O
InChI: not available
Instrument: micrOTOF-Q
Instrument type: ESI-TOF
Precursor m/z: 138.055
Precursor type: [M+H]+
Base peak: 138.053
m/z	relative intensity
78.034	21
92.049	133
93.055	30
94.065	323
95.067	22
96.044	34
110.059	221
111.063	13
138.054	999
139.057	80
154.050	10
