Mass spectrum: (DL) beta-leucine; ; ESI-TOF; CE:10 eV; [M+H]+
Name: (DL) beta-leucine
Name: 2-Amino-4-mercaptobutyric acid
Name: 2-Amino-4-mercapto-DL-butyrate
Name: 2-Amino-4-mercapto-DL-butyric acid
Name: 2-Amino-4-sulfanyl-butanoic acid
Name: (DL) homocysteine
Name: DL-Homocysteine
Class: unknown
Formula: C6H13NO2
Exact mass: 131.094628656
SMILES: CC(C)C(N)CC(=O)O
InChI: not available
Instrument: micrOTOF-Q
Instrument type: ESI-TOF
Precursor m/z: 146.994
Precursor type: [M+H]+
Base peak: 132.098
m/z	relative intensity
69.069	11
72.080	241
73.073	11
97.065	52
98.067	4
114.091	3
115.075	62
116.077	4
132.102	999
133.105	75
134.106	7
154.083	588
155.086	36
156.088	4
176.065	174
177.068	12
329.143	112
330.145	15
