Mass spectrum: 3-Methoxytyramine; ; ESI-TOF; CE:10 eV; [M+H]+
Name: 3-Methoxytyramine
Name: 3-Methoxy-4-hydroxyphenethylamine hydrochloride
Name: 3-MT
Name: 4-(2-Aminoethyl)-2-methoxy-phenol
Name: 4-(2-Aminoethyl)-2-methoxyphenol hydrochloride
Name: Methoxytyramine
Class: unknown
Formula: C9H13NO2
Exact mass: 167.094628656
SMILES: COC1=CC(CCN)=CC=C1(O)
InChI: not available
Instrument: micrOTOF-Q
Instrument type: ESI-TOF
Precursor m/z: 149.06
Precursor type: [M+H]+
Base peak: 151.071
m/z	relative intensity
91.054	53
92.057	4
95.049	17
96.051	1
108.057	1
119.049	77
120.053	7
123.080	5
133.066	1
136.052	22
137.058	10
144.081	2
149.025	2
150.613	2
151.077	999
152.078	123
153.080	11
162.090	2
168.101	150
169.104	17
170.107	1
