Mass spectrum: 3,4-Dimethoxyphenylacetic acid; ; ESI-TOF; CE:10 eV; [M-H]-
Name: 3,4-Dimethoxyphenylacetic acid
Name: (3,4-Dimethoxyphenyl)acetate
Name: (3,4-Dimethoxyphenyl)acetic acid
Name: 3,4-(Dimethoxy)benzeneacetic acid
Name: 3,4-Dimethoxybenzeneacetate
Name: 3,4-Dimethoxybenzeneacetic acid
Name: 3,4-Dimethoxyphenyl acetic acid
Name: 3,4-Dimethoxyphenylacetate
Name: Homoveratrate
Name: Homoveratric acid
Class: unknown
Formula: C10H12O4
Exact mass: 196.073558864
SMILES: COC1=CC=C(CC(O)=O)C=C1(OC)
InChI: not available
Instrument: micrOTOF-Q
Instrument type: ESI-TOF
Precursor m/z: 197.081
Precursor type: [M-H]-
Base peak: 195.07
m/z	relative intensity
93.033	22
94.037	2
112.986	2
121.029	115
122.032	10
123.010	5
135.044	3
136.052	71
137.055	6
138.032	4
151.076	24
152.079	2
165.053	4
168.043	76
169.046	7
180.983	2
195.067	999
196.070	114
197.071	13
