Mass spectrum: Deoxycytidine; ; ESI-TOF; CE:10 eV; [M+H]+
Name: Deoxycytidine
Name: 2'-Deoxycytidine
Name: 2'-Deoxy-cytidine
Name: 2-Deoxycytidine
Name: Cytosine deoxyribonucleoside
Name: Cytosine deoxyriboside
Name: DC
Name: DCYD
Name: Deoxyribose cytidine
Name: D-Cytidine
Name: Desoxycytidine
Class: unknown
Formula: C9H13N3O4
Exact mass: 227.090605896
SMILES: NC=1C=CN(C(=O)N=1)C2CC(O)C(CO)O2
InChI: not available
Instrument: micrOTOF-Q
Instrument type: ESI-TOF
Precursor m/z: 112.051
Precursor type: [M+H]+
Base peak: 112.048
m/z	relative intensity
94.038	2
95.023	12
112.051	999
113.053	53
114.054	3
117.055	9
126.067	18
131.975	3
146.961	3
149.023	6
159.968	4
177.977	2
181.953	9
201.059	2
204.970	2
224.129	3
228.099	116
229.101	13
230.103	2
