Mass spectrum: Isonicotinicacid; ; ESI-TOF; CE:10 eV; [M-H]-
Name: Isonicotinicacid
Name: 4-Picolinic acid,pyridine-4-carboxylic acid
Class: unknown
Formula: C6H5NO2
Exact mass: 123.0320284
SMILES: OC(=O)C=1C=CN=CC=1
InChI: not available
Instrument: micrOTOF-Q
Instrument type: ESI-TOF
Precursor m/z: 122.025
Precursor type: [M-H]-
Base peak: 122.027
m/z	relative intensity
78.034	43
79.038	2
94.030	3
112.988	2
122.025	999
123.028	71
124.029	7
267.038	136
268.041	17
269.042	2
