Mass spectrum: Propionylcarnitine; MS/MS; ESI-TOF; CE:10 eV; [M+H]+
Name: Propionylcarnitine
Name: Propionyl carnitine  ,L-propionylcarnitine  ,1-propanaminium, 3-carboxy-N,N,N-trimethyl-2-(1-oxopropoxy)-, inner salt,3-carboxy-N,N,N-trimethyl-2-(1-oxopropoxy)-1-propanaminium inner salt,O-propionylcarnitine,propionyl-L-carnitine,,
Class: unknown
Formula: C10H19NO4
Exact mass: 217.131408088
SMILES: CCC(=O)OC(CC(=O)[O-])C[N+](C)(C)C
InChI: not available
Instrument: micrOTOF-Q
Instrument type: ESI-TOF
Precursor m/z: 218.14
Precursor type: [M+H]+
Base peak: 85.0273
m/z	relative intensity
85.029	999
86.033	45
144.101	40
159.065	77
160.067	7
218.139	59
