Mass spectrum: Hydroferulic acid; ; ESI-TOF; CE:10 eV; [M+H]+
Name: Hydroferulic acid
Name: 3-(4-Hydroxy-3-methoxyphenyl)propionic acid
Class: unknown
Formula: C10H12O4
Exact mass: 196.073558864
SMILES: COC1=CC(CCC(O)=O)=CC=C1(O)
InChI: not available
Instrument: micrOTOF-Q
Instrument type: ESI-TOF
Precursor m/z: 450.322
Precursor type: [M+H]+
Base peak: 137.061
m/z	relative intensity
79.053	2
91.054	3
94.041	22
95.046	2
104.070	7
107.050	2
119.050	1
122.037	51
123.041	4
135.044	4
136.641	2
137.061	999
138.063	91
139.064	8
149.053	6
151.075	14
152.079	2
153.055	3
163.040	2
171.118	3
179.071	164
180.073	18
181.061	3
181.953	1
195.066	10
196.073	32
197.081	155
198.084	16
199.086	2
219.063	419
220.067	39
221.060	6
