Mass spectrum: 7,8-Dihydrobiopterin; MS/MS; ESI-TOF; CE:22 eV; [M+H]+
Name: 7,8-Dihydrobiopterin
Name: 7,8-Dihydrobiopterin
Class: unknown
Formula: C9H13N5O3
Exact mass: 239.101839276
SMILES: CC(O)C(O)C=1CNC=2NC(N)=NC(=O)C=2(N=1)
InChI: not available
Instrument: micrOTOF-Q
Instrument type: ESI-TOF
Precursor m/z: 240.111
Precursor type: [M+H]+
Base peak: 165.066
m/z	relative intensity
83.058	8
84.044	10
86.034	38
96.055	9
97.050	17
108.056	18
109.041	21
111.055	9
112.060	9
113.046	27
121.050	19
124.051	11
125.046	33
126.063	36
127.062	79
136.052	9
138.074	16
139.061	8
140.059	26
141.065	5
149.049	7
151.062	32
152.059	29
154.070	173
155.071	14
163.060	9
164.057	28
165.065	999
166.071	363
167.072	29
168.088	821
169.090	64
177.068	41
178.072	217
179.079	366
180.087	310
181.082	30
185.046	6
191.081	6
192.088	49
193.079	27
194.071	66
195.075	210
196.083	782
197.085	71
198.088	6
202.074	16
204.089	28
205.078	7
220.084	68
221.080	13
222.099	143
223.101	18
238.096	35
240.110	75
241.113	9
