Mass spectrum: 3,4-Dimethoxyphenylacetic acid; MS/MS; ESI-TOF; CE:-19 eV; [M-H]-
Name: 3,4-Dimethoxyphenylacetic acid
Name: (3,4-Dimethoxyphenyl)acetate
Name: (3,4-Dimethoxyphenyl)acetic acid
Name: 3,4-(Dimethoxy)benzeneacetic acid
Name: 3,4-Dimethoxybenzeneacetate
Name: 3,4-Dimethoxybenzeneacetic acid
Name: 3,4-Dimethoxyphenyl acetic acid
Name: 3,4-Dimethoxyphenylacetate
Name: Homoveratrate
Name: Homoveratric acid
Class: unknown
Formula: C10H12O4
Exact mass: 196.073558864
SMILES: COC1=CC=C(CC(O)=O)C=C1(OC)
InChI: not available
Instrument: micrOTOF-Q
Instrument type: ESI-TOF
Precursor m/z: 195.067
Precursor type: [M-H]-
Base peak: 121.033
m/z	relative intensity
121.029	999
122.033	75
123.012	27
136.052	196
137.056	16
138.032	27
168.042	404
169.047	39
