Mass spectrum: D-Panthenol; MS/MS; ESI-TOF; CE:-20 eV; [M-H]-
Name: D-Panthenol
Name: (R)-(+)-2,4-Dihydroxy-N-(3-hydroxypropyl)-3,3-dimethylbutyramide
Name: (R)-2,4-Dihydroxy-3,3-dimethylbutyric 3-hydroxypropylamide
Name: Dexpanthenol
Name: Provitamin B
Name: D-Pantothenyl alcohol
Class: unknown
Formula: C9H19NO4
Exact mass: 205.131408088
SMILES: CC(C)(CO)C(O)C(=O)NCCCO
InChI: not available
Instrument: micrOTOF-Q
Instrument type: ESI-TOF
Precursor m/z: 204.124
Precursor type: [M-H]-
Base peak: 102.053
m/z	relative intensity
71.048	112
72.044	62
74.059	54
99.044	217
100.041	41
102.055	999
103.058	46
126.092	97
129.054	15
130.050	75
146.080	22
156.102	40
172.098	23
174.113	14
204.123	385
205.126	45
