Mass spectrum: Tryptophane; MS/MS; ESI-TOF; CE:10 eV; [M+H]+
Name: Tryptophane
Class: unknown
Formula: C11H12N2O2
Exact mass: 204.089877624
SMILES: NC(CC1=CNC2=CC=CC=C12)C(O)=O
InChI: not available
Instrument: micrOTOF-Q
Instrument type: ESI-TOF
Precursor m/z: 188.071
Precursor type: [M+H]+
Base peak: 146.059
m/z	relative intensity
115.055	35
117.068	51
118.065	698
119.069	57
123.989	38
142.065	84
143.072	171
144.080	360
145.081	49
146.059	999
147.062	116
170.060	121
188.069	91
