Mass spectrum: (DL) beta-leucine; ; ESI-TOF; CE:10 eV; [M-H]-
Name: (DL) beta-leucine
Name: 2-Amino-4-mercaptobutyric acid
Name: 2-Amino-4-mercapto-DL-butyrate
Name: 2-Amino-4-mercapto-DL-butyric acid
Name: 2-Amino-4-sulfanyl-butanoic acid
Name: (DL) homocysteine
Name: DL-Homocysteine
Class: unknown
Formula: C6H13NO2
Exact mass: 131.094628656
SMILES: CC(C)C(N)CC(=O)O
InChI: not available
Instrument: micrOTOF-Q
Instrument type: ESI-TOF
Precursor m/z: 146.994
Precursor type: [M-H]-
Base peak: 267.05
m/z	relative intensity
72.007	6
100.039	3
102.054	3
114.985	8
132.012	166
133.015	8
134.028	593
135.030	32
136.025	25
137.028	1
267.048	999
268.049	110
269.044	96
270.047	9
271.044	3
