Mass spectrum: (L) Tyrosyl-L-leucine; MS/MS; ESI-TOF; CE:10 eV; [M+H]+
Name: (L) Tyrosyl-L-leucine
Name: (2S)-2-[[(2S)-2-Amino-3-(4-hydroxyphenyl)propanoyl]amino]-4-methylpentanoic acid
Name: Tyr-Leu
Class: unknown
Formula: C15H22N2O4
Exact mass: 294.157957184
SMILES: CC(C)CC(NC(=O)C(N)CC=1C=CC(O)=CC=1)C(=O)O
InChI: not available
Instrument: micrOTOF-Q
Instrument type: ESI-TOF
Precursor m/z: 295.165
Precursor type: [M+H]+
Base peak: 136.074
m/z	relative intensity
86.096	25
91.054	50
92.057	3
118.065	4
119.049	69
120.053	6
121.065	16
130.086	7
132.101	15
136.076	999
137.078	84
138.080	5
147.044	4
