Mass spectrum: Mucicacid; ; ESI-TOF; CE:10 eV; [M-H]-
Name: Mucicacid
Name: Galactaric acid,tetrahydroxyadipic acid,D-Galactarate,D-Mucic acid,D-Galactaric acid,(2R,3S,4R,5S)-2,3,4,5-tetrahydroxyhexanedioic acid,Galactarate ,Galactosaccharate ,Galactosaccharic acid ,Meso-galactaric acid,Saccharolactate ,Saccharolactic acid ,Schleimsaure ,hexaric acid
Class: unknown
Formula: C6H10O8
Exact mass: 210.03756728
SMILES: OC(=O)C(O)C(O)C(O)C(O)C(O)=O
InChI: not available
Instrument: micrOTOF-Q
Instrument type: ESI-TOF
Precursor m/z: 209.03
Precursor type: [M-H]-
Base peak: 209.029
m/z	relative intensity
209.030	999
210.034	69
211.035	18
212.038	1
