Mass spectrum: 5-Hydroxyanthranilic acid; ; ESI-TOF; CE:10 eV; [M+H]+
Name: 5-Hydroxyanthranilic acid
Name: 2-Amino-5-hydroxybenzoate
Name: 2-Amino-5-hydroxybenzoicacid
Class: unknown
Formula: C7H7NO3
Exact mass: 153.042593084
SMILES: NC=1C=CC(O)=CC=1(C(=O)O)
InChI: not available
Instrument: micrOTOF-Q
Instrument type: ESI-TOF
Precursor m/z: 152.036
Precursor type: [M+H]+
Base peak: 136.037
m/z	relative intensity
68.012	5
80.048	5
81.033	13
95.035	1
97.969	2
106.028	4
108.044	157
109.047	10
113.963	3
122.023	2
124.039	2
128.950	3
131.974	5
134.023	2
135.627	2
136.039	999
136.957	2
137.042	86
138.044	7
141.957	4
146.960	5
149.021	3
152.033	58
153.038	8
154.049	154
155.051	12
156.053	1
