Mass spectrum: Deoxycytidine; ; ESI-TOF; CE:10 eV; [M-H]-
Name: Deoxycytidine
Name: 2'-Deoxycytidine
Name: 2'-Deoxy-cytidine
Name: 2-Deoxycytidine
Name: Cytosine deoxyribonucleoside
Name: Cytosine deoxyriboside
Name: DC
Name: DCYD
Name: Deoxyribose cytidine
Name: D-Cytidine
Name: Desoxycytidine
Class: unknown
Formula: C9H13N3O4
Exact mass: 227.090605896
SMILES: NC=1C=CN(C(=O)N=1)C2CC(O)C(CO)O2
InChI: not available
Instrument: micrOTOF-Q
Instrument type: ESI-TOF
Precursor m/z: 228.099
Precursor type: [M-H]-
Base peak: 272.092
m/z	relative intensity
93.045	33
112.985	17
135.057	7
136.051	4
183.078	9
226.083	676
227.086	67
228.084	8
272.088	999
273.089	113
274.092	17
