Mass spectrum: 3-(3,4-Dihydroxyphenyl)propionic acid; ; ESI-TOF; CE:10 eV; [M+H]+
Name: 3-(3,4-Dihydroxyphenyl)propionic acid
Name: Dihydrocaffeic acid
Name: 3-(3,4-Dihydroxyphenyl)propanoate
Name: 3-(3,4-Dihydroxyphenyl)propionate
Name: 3-(3,4-Dihydroxyphenyl)propionic acid
Name: 3,4-Dihydroxy-(6CI,7CI,8CI)hydrocinnamate
Name: 3,4-Dihydroxy-(6CI,7CI,8CI)hydrocinnamic acid
Name: 3,4-Dihydroxybenzenepropanoic acid
Name: 3,4-Dihydroxybenzenepropionic acid
Name: 3,4-Dihydroxybenzenepropionate
Name: 3,4-Dihydroxyphenylpropionic acid
Name: 3,4-Dihydroxy-beta-phenylpropionate
Name: 3,4-Dihydroxy-beta-phenylpropionic acid
Name: 3,4-Dihydroxy-b-phenylpropionate
Name: 3,4-Dihydroxy-b-phenylpropionic acid
Name: 3,4-Dihydroxydihydrocinnamate
Name: 3,4-Dihydroxydihydrocinnamic acid
Name: 3,4-Dihydroxyhydrocinnamate
Name: 3,4-Dihydroxyhydrocinnamic acid
Name: 3,4-Dihydroxyphenylpropionate
Name: DHCA
Name: 3,4-HPA
Name: Dihydrocaffeate
Name: Hydrocaffeate
Name: Hydrocaffeic acid
Name: HYKOP
Class: unknown
Formula: C9H10O4
Exact mass: 182.0579088
SMILES: OC(=O)CCC=1C=CC(O)=C(O)C=1
InChI: not available
Instrument: micrOTOF-Q
Instrument type: ESI-TOF
Precursor m/z: 181.052
Precursor type: [M+H]+
Base peak: 123.047
m/z	relative intensity
77.038	8
91.053	6
95.049	11
105.036	20
107.050	14
119.051	5
123.044	999
124.047	77
125.050	7
135.044	88
136.048	11
137.059	72
138.063	7
139.039	34
149.023	8
151.042	4
153.054	19
163.039	87
164.043	9
165.055	405
166.058	42
167.056	5
179.036	3
181.050	150
182.056	79
183.065	471
184.068	44
185.071	6
203.032	358
204.035	36
205.047	154
206.052	15
221.043	45
222.048	4
223.059	8
224.129	4
345.101	87
346.104	18
