Mass spectrum: 5-Hydroxymethyluracil; MS/MS; ESI-TOF; CE:18 eV; [M+H]+
Name: 5-Hydroxymethyluracil
Name: 5-(Hydroxymethyl)pyrimidine-2,4-dione
Name: Uracil-5-methanol
Class: unknown
Formula: C5H6N2O3
Exact mass: 142.037842052
SMILES: OCC1=CNC(=O)NC1(=O)
InChI: not available
Instrument: micrOTOF-Q
Instrument type: ESI-TOF
Precursor m/z: 143.044
Precursor type: [M+H]+
Base peak: 82.0269
m/z	relative intensity
69.991	348
82.028	999
83.031	50
100.039	367
125.034	507
126.036	32
