Mass spectrum: 2-(4-Hydroxyphenyl)propionic acid; MS/MS; ESI-TOF; CE:-19 eV; [M-H]-
Name: 2-(4-Hydroxyphenyl)propionic acid
Class: unknown
Formula: C9H10O3
Exact mass: 166.06299417999998
SMILES: CC(C(O)=O)C=1C=CC(O)=CC=1
InChI: not available
Instrument: micrOTOF-Q
Instrument type: ESI-TOF
Precursor m/z: 165.057
Precursor type: [M-H]-
Base peak: 119.047
m/z	relative intensity
93.033	380
94.037	29
106.041	113
119.050	999
120.053	94
121.065	335
122.068	31
150.031	26
165.054	59
