Mass spectrum: Meso-tartaricacid; MS/MS; ESI-TOF; CE:10 eV; [M-H]-
Name: Meso-tartaricacid
Name: (2R,3S)-2,3-Dihydroxybutanedioic acid
Name: Meso-Tartrate,Erythraric acid,(2R,3S)-Tartaric acid,(2R,3S)-2,3-dihydroxysuccinic acid
Class: unknown
Formula: C4H6O6
Exact mass: 150.016437912
SMILES: OC(=O)C(O)C(O)C(O)=O
InChI: not available
Instrument: micrOTOF-Q
Instrument type: ESI-TOF
Precursor m/z: 149.01
Precursor type: [M-H]-
Base peak: 87.0074
m/z	relative intensity
72.992	514
73.997	15
75.007	37
87.008	999
88.011	39
103.003	88
105.019	128
130.998	21
149.009	260
150.012	15
