Mass spectrum: Mesaconicacid; ; ESI-TOF; CE:10 eV; [M+H]+
Name: Mesaconicacid
Name: (E)-2-Methylbut-2-enedioic acid
Name: Mesaconate,2-methylfumarate,Mesaconic acid,methylfumaric acid,methylfumarate,
Class: unknown
Formula: C5H6O4
Exact mass: 130.026608672
SMILES: CC(=CC(O)=O)C(O)=O
InChI: not available
Instrument: micrOTOF-Q
Instrument type: ESI-TOF
Precursor m/z: 96.008
Precursor type: [M+H]+
Base peak: 131.032
m/z	relative intensity
85.029	577
113.024	421
130.065	48
131.034	999
132.037	55
144.082	82
146.962	43
149.041	351
159.969	38
161.076	39
162.090	68
181.952	135
204.970	40
209.014	48
224.128	58
243.992	295
244.993	35
245.995	130
247.979	51
260.998	42
262.002	119
264.004	93
265.979	111
267.003	53
269.006	55
270.989	40
288.992	101
323.039	59
331.987	59
332.994	75
335.004	51
349.996	186
351.004	83
353.007	36
355.001	128
356.007	40
373.014	160
374.019	35
