Mass spectrum: D-Lyxose; MS/MS; ESI-TOF; CE:23 eV; [M+H]+
Name: D-Lyxose
Name: D-Lyx
Name: D-Lyxo-pentose
Class: unknown
Formula: C5H10O5
Exact mass: 150.05282341999998
SMILES: OC1COC(O)C(O)C1(O)
InChI: not available
Instrument: micrOTOF-Q
Instrument type: ESI-TOF
Precursor m/z: 265.229
Precursor type: [M+H]+
Base peak: 133.051
m/z	relative intensity
69.032	183
71.012	833
72.014	27
73.027	987
74.031	46
81.032	52
83.047	26
85.027	618
86.030	28
87.043	68
95.049	24
97.028	687
98.032	38
99.043	93
103.039	139
109.029	90
111.044	56
113.024	40
115.039	804
116.042	43
121.030	21
123.045	38
127.039	42
133.049	999
134.053	59
135.047	29
137.053	22
139.039	274
140.041	22
143.034	159
145.048	31
151.047	24
157.050	178
165.055	23
169.049	55
187.060	41
199.058	21
211.060	193
212.061	21
229.073	32
