Mass spectrum: Paraxanthine; MS/MS; ESI-TOF; CE:10 eV; [M-H]-
Name: Paraxanthine
Name: 1,7-Dimethylxanthine
Name: 1,7-Dimethyl-3H-purine-2,6-dione
Class: unknown
Formula: C7H8N4O2
Exact mass: 180.064725496
SMILES: CN2C=NC=1NC(=O)N(C)C(=O)C=12
InChI: not available
Instrument: micrOTOF-Q
Instrument type: ESI-TOF
Precursor m/z: 179.057
Precursor type: [M-H]-
Base peak: 122.032
m/z	relative intensity
82.040	33
92.992	22
96.055	88
107.011	48
108.019	27
122.035	999
123.038	63
135.009	28
140.046	29
164.033	636
165.034	49
166.025	198
179.056	796
180.059	68
