Mass spectrum: N-Acetylcarnosine; MS/MS; ESI-TOF; CE:10 eV; [M+H]+
Name: N-Acetylcarnosine
Class: unknown
Formula: C11H16N4O4
Exact mass: 268.117154992
SMILES: CN2C=NC=1NC(=O)NC(=O)C=12
InChI: not available
Instrument: micrOTOF-Q
Instrument type: ESI-TOF
Precursor m/z: 269.124
Precursor type: [M+H]+
Base peak: 110.073
m/z	relative intensity
72.045	45
95.060	31
110.071	999
111.073	71
113.377	18
114.055	159
156.076	699
157.077	52
164.082	53
210.087	35
