Mass spectrum: BOC Valine; ; ESI-TOF; CE:10 eV; [M+H]+
Name: BOC Valine
Class: unknown
Formula: C10H19NO4
Exact mass: 217.131408088
SMILES: CC(C)C(NC(=O)OC(C)(C)C)C(O)=O
InChI: not available
Instrument: micrOTOF-Q
Instrument type: ESI-TOF
Precursor m/z: 216.123
Precursor type: [M+H]+
Base peak: 240.122
m/z	relative intensity
72.082	8
79.022	6
98.060	4
116.071	6
118.086	21
119.089	2
122.097	2
140.068	29
141.070	2
149.023	4
158.081	1
161.625	2
162.076	322
163.079	20
164.081	3
174.148	2
181.951	3
183.538	1
184.058	180
185.061	13
186.063	2
202.069	5
206.058	1
217.520	1
218.017	1
218.139	165
219.142	19
220.139	2
231.043	2
235.014	4
236.026	2
239.426	7
239.623	1
240.122	999
241.124	118
242.126	14
243.128	1
256.095	15
257.098	2
258.130	22
259.133	3
261.583	3
262.102	12
263.098	2
