Mass spectrum: Quinicacid; ; ESI-TOF; CE:10 eV; [M+H]+
Name: Quinicacid
Name: Chinic acid,Kinic acid,quinate  ,Chinasaure,L-Quinic acid,L-Quinate,(-)-quinic acid,D-(-)-Quinic acid,D-QUINic acid
Class: unknown
Formula: C7H12O6
Exact mass: 192.06338810399998
SMILES: OC(=O)C1(O)(CC(O)C(O)C(O)C1)
InChI: not available
Instrument: micrOTOF-Q
Instrument type: ESI-TOF
Precursor m/z: 191.056
Precursor type: [M+H]+
Base peak: 193.069
m/z	relative intensity
69.036	2
83.050	7
95.049	23
96.052	2
111.044	24
121.031	4
129.054	43
130.057	4
139.038	41
140.041	3
147.064	125
148.068	10
149.025	6
157.049	85
158.053	6
159.969	2
165.076	10
175.060	17
181.952	3
187.126	2
192.464	2
193.071	999
194.074	72
195.076	13
210.098	6
211.083	3
215.053	31
216.057	3
