Mass spectrum: D-Panthenol; ; ESI-TOF; CE:10 eV; [M+H]+
Name: D-Panthenol
Name: (R)-(+)-2,4-Dihydroxy-N-(3-hydroxypropyl)-3,3-dimethylbutyramide
Name: (R)-2,4-Dihydroxy-3,3-dimethylbutyric 3-hydroxypropylamide
Name: Dexpanthenol
Name: Provitamin B
Name: D-Pantothenyl alcohol
Class: unknown
Formula: C9H19NO4
Exact mass: 205.13140808799997
SMILES: CC(C)(CO)C(O)C(=O)NCCCO
InChI: not available
Instrument: micrOTOF-Q
Instrument type: ESI-TOF
Precursor m/z: 129.066
Precursor type: [M+H]+
Base peak: 206.139
m/z	relative intensity
76.074	25
102.055	10
146.962	2
149.023	4
159.968	2
170.117	15
171.123	2
181.952	7
188.128	33
189.131	4
201.056	4
204.969	2
205.489	2
206.140	999
207.142	107
208.143	13
228.121	269
229.124	25
230.127	3
