Mass spectrum: Indolpropionic acid; ; ESI-TOF; CE:10 eV; [M+H]+
Name: Indolpropionic acid
Class: unknown
Formula: C11H11NO2
Exact mass: 189.078978592
SMILES: O=C(O)CCC1=CNC=2C=CC=CC1=2
InChI: not available
Instrument: micrOTOF-Q
Instrument type: ESI-TOF
Precursor m/z: 166.123
Precursor type: [M+H]+
Base peak: 190.085
m/z	relative intensity
192.093	11
130.065	692
131.068	73
172.075	213
173.078	25
189.077	63
190.086	999
191.090	124
212.067	210
213.068	23
234.049	13
289.004	15
