Mass spectrum: (DL) 2-amino-3-phosphonopropionic acid; MS/MS; ESI-TOF; CE:19 eV; [M+H]+
Name: (DL) 2-amino-3-phosphonopropionic acid
Name: 2-Amino-3-phosphonopropionic acid
Name: 2-Amino-3-phosphonopropionate
Name: 3-Phosphono-DL-alanine
Name: 2-Amino-3-phosphonopropanoate
Name: DL-2-amino-3-phosphonopropionic acid
Name: AP-3
Name: Phosphonoalanine
Class: unknown
Formula: C3H8NO5P
Exact mass: 169.014008986
SMILES: NC(CP(O)(O)=O)C(O)=O
InChI: not available
Instrument: micrOTOF-Q
Instrument type: ESI-TOF
Precursor m/z: 170.022
Precursor type: [M+H]+
Base peak: 124.018
m/z	relative intensity
97.004	4
98.000	30
106.005	130
107.008	4
124.016	999
125.018	30
126.021	6
170.021	6
