Mass spectrum: 2-Hydroxypalmitic acid; ; ESI-TOF; CE:10 eV; [M+H]+
Name: 2-Hydroxypalmitic acid
Name: Alpha-hydroxypalmitic acid
Name: 2-Hydroxyhexadecanoate
Name: 2-Hydroxyhexadecanoic acid
Name: 2-Hydroxy-hexadecanoic acid
Name: 2-Hydroxy palmitic acid
Name: DL-a-hydroxypalmitic acid
Name: DL-alpha-hydroxypalmitic acid
Class: unknown
Formula: C16H32O3
Exact mass: 272.23514488399996
SMILES: CCCCCCCCCCCCCCC(O)C(O)=O
InChI: not available
Instrument: micrOTOF-Q
Instrument type: ESI-TOF
Precursor m/z: 273.243
Precursor type: [M+H]+
Base peak: 273.241
m/z	relative intensity
273.24	999
274.25	178
275.25	21
276.25	2
