Mass spectrum: 5-Hydroxy-6-methyluracil; ; ESI-TOF; CE:10 eV; [M+H]+
Name: 5-Hydroxy-6-methyluracil
Class: unknown
Formula: C6H8N2O3
Exact mass: 156.05349211599997
SMILES: [H]OC(=O)C([H])([H])C(O[H])C([H])([H])C([H])([H])C([H])([H])C([H])([H])C([H])([H])C([H])([H])C([H])([H])C([H])([H])C([H])([H])[H]
InChI: not available
Instrument: micrOTOF-Q
Instrument type: ESI-TOF
Precursor m/z: 273.076
Precursor type: [M+H]+
Base peak: 139.053
m/z	relative intensity
96.045	483
97.048	30
138.676	6
139.051	999
140.054	76
141.055	8
146.961	4
149.023	26
157.062	332
158.064	24
159.970	9
163.943	5
165.067	30
179.044	136
180.044	11
