Mass spectrum: Isethionicacid; MS/MS; ESI-TOF; CE:10 eV; [M-H]-
Name: Isethionicacid
Name: 2-Hydroxyethanesulfonate,2-hydroxyethanesulfonic acid,2-hydroxyethane-1-sulfonic acid,2-hydroxyethane-1-sulfonate,Isethionate
Class: unknown
Formula: C2H6O4S
Exact mass: 125.998679672
SMILES: OCCS(O)(=O)=O
InChI: not available
Instrument: micrOTOF-Q
Instrument type: ESI-TOF
Precursor m/z: 124.992
Precursor type: [M-H]-
Base peak: 79.955
m/z	relative intensity
79.957	999
80.960	13
81.953	48
94.980	338
95.982	6
96.976	18
106.981	96
107.982	4
108.976	6
122.974	15
124.991	354
125.993	12
126.988	20
