Mass spectrum: m-Coumaric acid; MS/MS; ESI-TOF; CE:19 eV; [M+H]+
Name: m-Coumaric acid
Name: 3-Hydroxycinnamic acid
Name: (E)-3-(3-Hydroxyphenyl)prop-2-enoic acid
Name: 3- (3-Hydroxyphenyl)-2-propenoic acid
Name: 3-Coumarate
Name: 3-Coumaric acid
Name: m-Hydroxy-Cinnamic acid
Name: 3-(3-Hydroxyphenyl)acrylic acid
Name: Trans-3-hydroxycinnamate
Name: Trans-3-hydroxycinnamic acid
Class: unknown
Formula: C9H8O3
Exact mass: 164.04734411599998
SMILES: OC(=O)CCC=1C=CC=C(O)C=1
InChI: not available
Instrument: micrOTOF-Q
Instrument type: ESI-TOF
Precursor m/z: 165.054
Precursor type: [M+H]+
Base peak: 119.05
m/z	relative intensity
91.054	632
92.058	44
119.049	999
120.052	99
147.044	865
148.047	91
