Mass spectrum: Hesperidin; ; ESI-TOF; CE:10 eV; [M-H]-
Name: Hesperidin
Name: Hesperetin 7-O-rutinoside
Name: Ciratin
Name: Hesperetin 7-rhamnoglucoside
Name: D: 3594
Name: Hesperitin-7-rutinoside
Class: unknown
Formula: C28H34O15
Exact mass: 610.1897703879999
SMILES: COC1=CC=C(C=C1(O))C2CC(=O)C=3C(O)=CC(=CC=3(O2))OC5OC(COC4OC(C)C(O)C(O)C4(O))C(O)C(O)C5(O)
InChI: not available
Instrument: micrOTOF-Q
Instrument type: ESI-TOF
Precursor m/z: 487.098
Precursor type: [M-H]-
Base peak: 609.177
m/z	relative intensity
301.071	7
302.074	1
463.122	2
577.153	1
579.170	5
580.174	1
609.182	999
610.185	304
611.187	68
612.189	11
613.193	2
