Mass spectrum: Betaine aldehyde; ; ESI-TOF; CE:10 eV; [M+H]+
Name: Betaine aldehyde
Class: unknown
Formula: C5H12NO
Exact mass: 102.091889004
SMILES: [H]C(=O)C[N+](C)(C)C
InChI: not available
Instrument: micrOTOF-Q
Instrument type: ESI-TOF
Precursor m/z: 134.119
Precursor type: [M+H]+
Base peak: 134.114
m/z	relative intensity
80.947	7
82.944	3
102.091	224
103.094	14
120.102	127
121.106	7
134.117	999
135.120	67
136.123	6
