Mass spectrum: Phthalicacid; MS/MS; ESI-TOF; CE:10 eV; [M-H]-
Name: Phthalicacid
Name: Phthalate,Phthalic acid,1,2-benzenedicarboxylic acid,Kyselina ftalova,Orthophthalic acid,o-benzenedicarboxylic acid,Sunftal 20,o-phthalic acid,o-dicarboxybenzene,Acide phtalique,Phthalsylure,
Name: CID 1017
Class: unknown
Formula: C8H6O4
Exact mass: 166.026608672
SMILES: OC(=O)C1=CC=CC=C1(C(O)=O)
InChI: not available
Instrument: micrOTOF-Q
Instrument type: ESI-TOF
Precursor m/z: 165.02
Precursor type: [M-H]-
Base peak: 121.028
m/z	relative intensity
77.038	24
93.033	4
121.030	999
122.032	74
123.035	7
165.019	82
166.022	8
