Mass spectrum: Ferulicacid; MS/MS; ESI-TOF; CE:19 eV; [M+H]+
Name: Ferulicacid
Name: Ferulate,4-hydroxy-3-methoxycinnamic acid,3-methoxy-4-hydroxy-trans-cinnamate,(2E)-3-(4-hydroxy-3-methoxyphenyl)prop-2-enoic acid ,3-(4-hydroxy-3-methoxy-phenyl)prop-2-enoic acid,trans-4-hydroxy-3-methoxycinnamic acid
Class: unknown
Formula: C10H10O4
Exact mass: 194.0579088
SMILES: COC1=CC(C=CC(O)=O)=CC=C1(O)
InChI: not available
Instrument: micrOTOF-Q
Instrument type: ESI-TOF
Precursor m/z: 195.168
Precursor type: [M+H]+
Base peak: 145.031
m/z	relative intensity
89.039	90
90.043	8
91.055	13
93.034	9
103.054	9
106.041	10
107.050	6
111.044	10
117.034	378
118.038	38
119.049	9
121.065	16
124.052	6
125.061	20
134.037	58
135.044	90
136.047	8
145.029	999
146.032	103
147.039	11
149.060	344
150.064	36
153.056	21
162.032	33
163.039	89
164.043	10
177.055	660
178.059	75
179.054	8
