Mass spectrum: Chlorogenic acid; ; ESI-TOF; CE:10 eV; [M-H]-
Name: Chlorogenic acid
Name: Chlorogenate
Name: 3-(3,4-Dihydroxycinnamoyl)quinic acid
Name: 3-Caffeoylquinic acid
Name: 3-O-Caffeoylquinic acid
Name: 5-O-(3,4-Dihydroxycinnamoyl)-L-quinic acid
Class: unknown
Formula: C16H18O9
Exact mass: 354.095082156
SMILES: O=C(C=CC1=CC=C(O)C(O)=C1)OC2CC(O)(CC(O)C2(O))C(O)=O
InChI: not available
Instrument: micrOTOF-Q
Instrument type: ESI-TOF
Precursor m/z: 353.087
Precursor type: [M-H]-
Base peak: 353.086
m/z	relative intensity
133.0305	1
135.0451	1
161.0234	9
173.0455	1
179.0345	4
191.0556	558
192.0584	41
193.0597	7
353.0872	999
354.0901	168
355.0909	27
356.0897	4
