Mass spectrum: Indole-3-propionicacid; ; ESI-TOF; CE:10 eV; [M-H]-
Name: Indole-3-propionicacid
Name: 3-Indololpropionic acid
Name: 3-(3-Indolyl)propanoic acid
Name: 3-(3-Indolyl)propionic acid
Name: IPA
Class: unknown
Formula: C11H11NO2
Exact mass: 189.078978592
SMILES: O=C(O)CCC1=CNC=2C=CC=CC1=2
InChI: not available
Instrument: micrOTOF-Q
Instrument type: ESI-TOF
Precursor m/z: 188.073
Precursor type: [M-H]-
Base peak: 188.07
m/z	relative intensity
89.023	3
116.050	23
117.053	2
142.066	13
143.068	2
144.081	10
180.987	2
188.073	999
189.074	134
190.077	10
