Mass spectrum: Phloridzin; MS/MS; ESI-TOF; CE:23 eV; [M+H]+
Name: Phloridzin
Name: Phlorizin,Phlorhizin,Phlorizoside,Phlorrhizin  ,Phlorizine,Floridzin,Phloridzosid,Phlorrhizen
Name: Phloretin 2'-glucoside
Class: unknown
Formula: C21H24O10
Exact mass: 436.13694696799996
SMILES: OCC3OC(OC=2C=C(O)C=C(O)C=2(C(=O)CCC1=CC=C(O)C=C1))C(O)C(O)C3(O)
InChI: not available
Instrument: micrOTOF-Q
Instrument type: ESI-TOF
Precursor m/z: 437.144
Precursor type: [M+H]+
Base peak: 107.051
m/z	relative intensity
85.028	54
107.049	999
108.052	87
127.039	58
149.060	158
169.049	253
211.061	70
215.071	50
235.060	75
275.091	691
276.094	111
287.091	83
299.089	59
317.101	171
341.103	123
353.100	112
