Mass spectrum: Rosmarinicacid; ; ESI-TOF; CE:10 eV; [M+H]+
Name: Rosmarinicacid
Name: Rosmarinate
Class: unknown
Formula: C18H16O8
Exact mass: 360.084517472
SMILES: OC(=O)C(CC1=CC=C(O)C(O)=C1)OC(=O)C=CC2=CC=C(O)C(O)=C2
InChI: not available
Instrument: micrOTOF-Q
Instrument type: ESI-TOF
Precursor m/z: 361.091
Precursor type: [M+H]+
Base peak: 163.04
m/z	relative intensity
135.043	14
139.040	5
145.029	14
163.039	999
164.042	95
165.045	11
179.034	14
181.049	58
182.053	7
294.004	6
323.055	6
343.079	156
344.082	30
345.085	6
359.073	10
361.091	357
362.094	67
363.098	10
378.116	7
379.042	8
381.058	6
383.071	72
384.074	13
413.084	7
455.028	12
505.109	8
519.093	15
521.105	26
522.112	7
523.121	148
524.124	40
525.128	9
611.135	11
717.146	18
718.147	7
719.159	17
720.163	8
721.174	106
722.178	39
723.179	14
743.158	27
744.154	10
