Mass spectrum: Hexanoyl-L-carnitine; ; ESI-TOF; CE:10 eV; [M-H]-
Name: Hexanoyl-L-carnitine
Name: (3R)-3-Hexanoyloxy-4-trimethylazaniumylbutanoate
Name: (R)-Caproylcarnitine
Name: L-Hexanoylcarnitine
Name: O-Hexanoyl-R-carnitine
Class: unknown
Formula: C13H25NO4
Exact mass: 259.17835828
SMILES: CCCCCC(=O)OC(CC(=O)[O-])C[N+](C)(C)C
InChI: not available
Instrument: micrOTOF-Q
Instrument type: ESI-TOF
Precursor m/z: 260.188
Precursor type: [M-H]-
Base peak: 304.178
m/z	relative intensity
101.023	4
112.985	31
115.076	188
116.078	12
134.072	3
144.102	533
145.105	42
146.106	4
161.081	61
162.084	5
183.063	3
188.092	182
189.097	15
190.929	5
214.180	79
215.183	11
258.169	24
259.173	4
260.185	39
261.186	6
294.148	8
304.175	999
305.178	148
306.179	20
372.164	3
374.252	54
375.256	11
