Mass spectrum: 3-Methylxanthine; ; ESI-TOF; CE:10 eV; [M+H]+
Name: 3-Methylxanthine
Name: 2,6-Dihydroxy-3-methylpurine
Name: 3-Methyl Xanthine
Name: 3-Methyl-3,9-dihydro-purine-2,6-dione
Name: 3-Methyl-xanthine
Class: unknown
Formula: C6H6N4O2
Exact mass: 166.049075432
SMILES: CN2C(=O)NC(=O)C=1NC=NC=12
InChI: not available
Instrument: micrOTOF-Q
Instrument type: ESI-TOF
Precursor m/z: 167.057
Precursor type: [M+H]+
Base peak: 167.056
m/z	relative intensity
167.056	999
168.059	81
169.061	7
