Mass spectrum: (DL) beta-leucine; MS/MS; ESI-TOF; CE:17 eV; [M+H]+
Name: (DL) beta-leucine
Name: 2-Amino-4-mercaptobutyric acid
Name: 2-Amino-4-mercapto-DL-butyrate
Name: 2-Amino-4-mercapto-DL-butyric acid
Name: 2-Amino-4-sulfanyl-butanoic acid
Name: (DL) homocysteine
Name: DL-Homocysteine
Class: unknown
Formula: C6H13NO2
Exact mass: 131.094628656
SMILES: CC(C)C(N)CC(=O)O
InChI: not available
Instrument: micrOTOF-Q
Instrument type: ESI-TOF
Precursor m/z: 132.102
Precursor type: [M+H]+
Base peak: 72.0797
m/z	relative intensity
69.069	119
70.072	13
72.080	999
73.066	185
74.068	11
97.065	113
115.076	33
132.102	37
