Mass spectrum: (DL) ethionine; ; ESI-TOF; CE:10 eV; [M-H]-
Name: (DL) ethionine
Name: (2S)-2-Amino-4-ethylsulfanyl-butanoic acid
Name: 2-Amino-4-(ethylthio)butyric acid
Name: 2-Amino-4-ethylsulfanyl-butanoic acid
Name: D,L-Ethionine
Class: unknown
Formula: C6H13NO2S
Exact mass: 163.066699656
SMILES: CCSCCC(N)C(=O)O
InChI: not available
Instrument: micrOTOF-Q
Instrument type: ESI-TOF
Precursor m/z: 611.196
Precursor type: [M-H]-
Base peak: 162.06
m/z	relative intensity
162.059	999
163.062	79
164.056	52
165.059	4
