Mass spectrum: Pimelicacid; ; ESI-TOF; CE:10 eV; [M-H]-
Name: Pimelicacid
Name: Heptanedioic acid,6-carboxyhexanoate,Pimelate,Pimelic acid
Class: unknown
Formula: C7H12O4
Exact mass: 160.073558864
SMILES: OC(=O)CCCCCC(O)=O
InChI: not available
Instrument: micrOTOF-Q
Instrument type: ESI-TOF
Precursor m/z: 124.039
Precursor type: [M-H]-
Base peak: 159.063
m/z	relative intensity
159.066	999
160.070	78
161.071	11
