Mass spectrum: Daidzein; ; ESI-TOF; CE:10 eV; [M-H]-
Name: Daidzein
Name: 7-Hydroxy-3-(4-hydroxy-phenyl)-4H-1-benzo-pyran-4-one
Name: 4',7-Dihydroxybutisobutflavone
Name: 7-Hydroxy-3-(4-hydroxy-phenyl)-chromone
Class: unknown
Formula: C15H10O4
Exact mass: 254.0579088
SMILES: OC1=CC=C(C=C1)C2=COC=3C=C(O)C=CC=3(C2(=O))
InChI: not available
Instrument: micrOTOF-Q
Instrument type: ESI-TOF
Precursor m/z: 112.051
Precursor type: [M-H]-
Base peak: 253.045
m/z	relative intensity
112.985	12
146.939	8
180.977	8
190.928	6
204.122	4
235.924	4
248.959	6
253.049	999
254.053	157
255.054	18
