Mass spectrum: Homogentisic acid; ; ESI-TOF; CE:10 eV; [M+H]+
Name: Homogentisic acid
Name: 2,5-Dihydroxyphenylacetic acid
Name: 2,5-Dihydroxyphenylacetate
Name: Homogentisate
Class: unknown
Formula: C8H8O4
Exact mass: 168.042258736
SMILES: OC(=O)CC=1C=C(O)C=CC=1(O)
InChI: not available
Instrument: micrOTOF-Q
Instrument type: ESI-TOF
Precursor m/z: 123.044
Precursor type: [M+H]+
Base peak: 169.047
m/z	relative intensity
67.053	5
95.049	59
96.053	3
121.028	3
122.036	3
123.044	560
124.047	45
125.049	4
129.066	2
141.054	2
144.081	4
149.024	7
150.030	9
151.039	364
152.042	31
153.044	4
161.064	3
162.089	3
168.043	2
168.526	2
169.050	999
170.053	82
171.055	12
191.032	105
192.035	9
