Mass spectrum: Mucicacid; MS/MS; ESI-TOF; CE:10 eV; [M-H]-
Name: Mucicacid
Name: Galactaric acid,tetrahydroxyadipic acid,D-Galactarate,D-Mucic acid,D-Galactaric acid,(2R,3S,4R,5S)-2,3,4,5-tetrahydroxyhexanedioic acid,Galactarate ,Galactosaccharate ,Galactosaccharic acid ,Meso-galactaric acid,Saccharolactate ,Saccharolactic acid ,Schleimsaure ,hexaric acid
Class: unknown
Formula: C6H10O8
Exact mass: 210.03756728
SMILES: OC(=O)C(O)C(O)C(O)C(O)C(O)=O
InChI: not available
Instrument: micrOTOF-Q
Instrument type: ESI-TOF
Precursor m/z: 209.03
Precursor type: [M-H]-
Base peak: 85.0258
m/z	relative intensity
71.013	152
72.994	47
75.008	50
84.020	46
85.028	999
86.032	46
87.009	56
89.023	250
101.023	23
103.002	48
115.003	85
129.018	99
133.013	326
147.029	28
191.019	55
209.029	87
