Mass spectrum: 2-Methoxyestrone; ; ESI-TOF; CE:10 eV; [M+H]+
Name: 2-Methoxyestrone
Name: 2-Hydroxyestrone 2-methyl ether
Name: 3-Hydroxy-2-methoxy-Estra-1,3,5(10)-trien-17-one
Name: 2,3-Dihydroxy-1,3,5(10)-estratrien-17-one 2-methyl ether
Name: 2-Methoxy-17-oxoestra-1,3,5(10)-trien-3-ol
Name: 2-Methoxy-3-hydroxyestra-1,3,5(10)-trien-17-one
Name: 3-Hydroxy-2-methoxy-13-methyl-7,8,9,11,12,14,15,16-octahydro-6H-cyclopenta[a]phenanthren-17-one
Name: 3-Hydroxy-2-methoxy-1,3,5(10)-estratrien-17-one
Name: 3-Hydroxy-2-methoxyestra-1,3,5(10)-trien-17-one
Name: Methoxy-Estrone
Class: unknown
Formula: C19H24O3
Exact mass: 300.17254462799997
SMILES: [H]C23(CCC4(C)(C(=O)CCC4([H])(C3([H])(CCC=1C=C(O)C(=CC=12)OC))))
InChI: not available
Instrument: micrOTOF-Q
Instrument type: ESI-TOF
Precursor m/z: 193.035
Precursor type: [M+H]+
Base peak: 301.181
m/z	relative intensity
82.0254	7
105.0329	8
122.0962	53
123.0967	7
124.0863	9
146.9611	11
149.0234	22
152.1048	16
181.9529	27
183.0800	62
184.0840	10
187.0751	11
194.1181	15
204.9680	11
265.1765	9
283.1657	29
300.1754	20
301.1812	999
302.1844	191
303.1868	24
322.1540	16
323.1622	97
324.1675	18
341.1746	88
342.1778	15
