Mass spectrum: (DL) ethionine; ; ESI-TOF; CE:10 eV; [M+H]+
Name: (DL) ethionine
Name: (2S)-2-Amino-4-ethylsulfanyl-butanoic acid
Name: 2-Amino-4-(ethylthio)butyric acid
Name: 2-Amino-4-ethylsulfanyl-butanoic acid
Name: D,L-Ethionine
Class: unknown
Formula: C6H13NO2S
Exact mass: 163.066699656
SMILES: CCSCCC(N)C(=O)O
InChI: not available
Instrument: micrOTOF-Q
Instrument type: ESI-TOF
Precursor m/z: 611.196
Precursor type: [M+H]+
Base peak: 164.074
m/z	relative intensity
164.074	999
165.077	79
166.071	52
167.074	4
