Mass spectrum: 2-Naphthol; ; ESI-TOF; CE:10 eV; [M+H]+
Name: 2-Naphthol
Name: b-Naphthol
Name: Beta-naphthol
Name: 2-Hydroxynaphthalene
Name: 2-Naphthalenol
Name: Beta-hydroxynaphthalene
Class: unknown
Formula: C10H8O
Exact mass: 144.057514876
SMILES: OC=1C=CC=2C=CC=CC=2(C=1)
InChI: not available
Instrument: micrOTOF-Q
Instrument type: ESI-TOF
Precursor m/z: 143.05
Precursor type: [M+H]+
Base peak: 145.061
m/z	relative intensity
145.065	999
146.068	109
147.072	7
