Mass spectrum: Tryptophane; MS/MS; ESI-TOF; CE:10 eV; [M-H]-
Name: Tryptophane
Class: unknown
Formula: C11H12N2O2
Exact mass: 204.089877624
SMILES: NC(CC1=CNC2=CC=CC=C12)C(O)=O
InChI: not available
Instrument: micrOTOF-Q
Instrument type: ESI-TOF
Precursor m/z: 203.082
Precursor type: [M-H]-
Base peak: 116.053
m/z	relative intensity
72.008	32
74.025	241
116.050	999
117.052	98
130.066	37
142.065	329
143.068	29
159.091	46
186.055	38
203.082	86
204.087	13
