Mass spectrum: 3,4-Dihydroxybenzoic acid; MS/MS; ESI-TOF; CE:18 eV; [M+H]+
Name: 3,4-Dihydroxybenzoic acid
Name: 3,4-Dihydroxybenzoate
Name: 4,5-Dihydroxybenzoic acid
Name: 4-Carboxy-1,2-dihydroxybenzene
Name: Beta-Resorcylate
Name: Beta-Resorcylic acid
Name: b-Resorcylate
Name: b-Resorcylic acid
Name: Protocatechuic acid
Name: Protocatechuate
Name: Protocatehuic acid
Class: unknown
Formula: C7H6O4
Exact mass: 154.026608672
SMILES: OC(=O)C=1C=CC(O)=C(O)C=1
InChI: not available
Instrument: micrOTOF-Q
Instrument type: ESI-TOF
Precursor m/z: 155.033
Precursor type: [M+H]+
Base peak: 111.044
m/z	relative intensity
65.037	90
81.032	103
93.033	531
94.036	35
97.028	35
109.028	124
111.044	999
112.048	69
137.024	390
138.028	33
155.032	37
