Mass spectrum: Phloridzin; ; ESI-TOF; CE:10 eV; [M+H]+
Name: Phloridzin
Name: Phlorizin,Phlorhizin,Phlorizoside,Phlorrhizin  ,Phlorizine,Floridzin,Phloridzosid,Phlorrhizen
Name: Phloretin 2'-glucoside
Class: unknown
Formula: C21H24O10
Exact mass: 436.13694696799996
SMILES: OCC3OC(OC=2C=C(O)C=C(O)C=2(C(=O)CCC1=CC=C(O)C=C1))C(O)C(O)C3(O)
InChI: not available
Instrument: micrOTOF-Q
Instrument type: ESI-TOF
Precursor m/z: 165.055
Precursor type: [M+H]+
Base peak: 437.139
m/z	relative intensity
437.144	999
438.148	234
439.151	47
440.152	7
