Mass spectrum: Phenacetin; ; ESI-TOF; CE:10 eV; [M+H]+
Name: Phenacetin
Name: Acetophenetidin,p-acetophenetidide,4'-ethoxyacetanilide,1-acetyl-p-phenetidin,
Class: unknown
Formula: C10H13NO2
Exact mass: 179.094628656
SMILES: CCOC=1C=CC(=CC=1)NC(C)=O
InChI: not available
Instrument: micrOTOF-Q
Instrument type: ESI-TOF
Precursor m/z: 179.057
Precursor type: [M+H]+
Base peak: 180.099
m/z	relative intensity
180.102	999
181.105	113
182.109	10
