Mass spectrum: 3-(2-Hydroxyphenyl)propionic acid; MS/MS; ESI-TOF; CE:19 eV; [M+H]+
Name: 3-(2-Hydroxyphenyl)propionic acid
Name: 2-Hydroxyhydrocinnamic acid
Name: 2-Hydroxyphenylpropanoate
Name: 2-Hydroxyphenylpropionic acid
Name: 3-(2-Hydroxyphenyl)propanoate
Name: 3-(2-Hydroxyphenyl)propionate
Name: Melilotate
Name: Melilotic acid
Class: unknown
Formula: C9H10O3
Exact mass: 166.06299417999998
SMILES: OC(=O)CCC=1C=CC=CC=1(O)
InChI: not available
Instrument: micrOTOF-Q
Instrument type: ESI-TOF
Precursor m/z: 167.07
Precursor type: [M+H]+
Base peak: 107.047
m/z	relative intensity
93.070	54
103.054	70
107.049	999
108.053	83
121.065	855
122.069	83
