Mass spectrum: Cadaverine; ; ESI-TOF; CE:10 eV; [M+H]+
Name: Cadaverine
Name: 1,5-Diaminopentane
Name: 1,5-Pentamethylenediamine
Name: 1,5-Pentanediamine
Name: Cadaverine dihydrochloride
Name: Pentamethylenediamine
Name: Pentane-1,5-diamine
Class: unknown
Formula: C5H14N2
Exact mass: 102.115698448
SMILES: NCCCCCN
InChI: not available
Instrument: micrOTOF-Q
Instrument type: ESI-TOF
Precursor m/z: 102.091
Precursor type: [M+H]+
Base peak: 205.241
m/z	relative intensity
86.0959	192
87.1001	10
103.1233	538
104.1256	30
205.0999	9
205.2385	999
206.2416	112
207.2453	7
241.2150	396
242.2168	49
243.2117	131
244.2160	17
277.1927	67
278.1948	7
279.1890	49
281.1857	11
313.1695	381
314.1740	44
315.1663	364
316.1682	49
317.1641	123
318.1655	14
319.1595	13
