Mass spectrum: Chlorogenic acid; MS/MS; ESI-TOF; CE:-26 eV; [M-H]-
Name: Chlorogenic acid
Name: Chlorogenate
Name: 3-(3,4-Dihydroxycinnamoyl)quinic acid
Name: 3-Caffeoylquinic acid
Name: 3-O-Caffeoylquinic acid
Name: 5-O-(3,4-Dihydroxycinnamoyl)-L-quinic acid
Class: unknown
Formula: C16H18O9
Exact mass: 354.095082156
SMILES: O=C(C=CC1=CC=C(O)C(O)=C1)OC2CC(O)(CC(O)C2(O))C(O)=O
InChI: not available
Instrument: micrOTOF-Q
Instrument type: ESI-TOF
Precursor m/z: 191.056
Precursor type: [M-H]-
Base peak: 191.056
m/z	relative intensity
85.028	321
87.009	76
93.032	64
111.045	57
127.039	150
171.029	28
173.047	39
191.055	999
192.056	50
