Mass spectrum: Hydroxypyruvic acid; ; ESI-TOF; CE:10 eV; [M-H]-
Name: Hydroxypyruvic acid
Name: 3-Hydroxypyruvate
Name: 3-Hydroxy-2-oxopropanoic acid
Name: 3-Hydroxypyruvic acid
Name: Beta-hydroxypyruvate
Name: Beta-hydroxypyruvic acid
Name: Hydroxypyruvate
Name: OH-pyr
Name: OH-pyruvate
Class: unknown
Formula: C3H4O4
Exact mass: 104.010958608
SMILES: OCC(=O)C(O)=O
InChI: not available
Instrument: micrOTOF-Q
Instrument type: ESI-TOF
Precursor m/z: 177.091
Precursor type: [M-H]-
Base peak: 121.015
m/z	relative intensity
73.027	2
87.008	1
89.022	2
99.008	5
101.002	4
103.003	709
104.007	23
105.008	6
121.015	999
122.018	37
123.019	11
163.025	76
164.028	5
165.026	1
207.015	76
208.019	5
209.029	14
223.045	59
224.049	5
225.025	41
226.028	3
227.025	1
228.999	4
