Mass spectrum: L-Alpha-hydroxy isovalericacid; MS/MS; ESI-TOF; CE:10 eV; [M-H]-
Name: L-Alpha-hydroxy isovalericacid
Name: (2S)-2-Hydroxy-3-methylbutanoic acid
Class: unknown
Formula: C5H10O3
Exact mass: 118.06299417999999
SMILES: CC(C)C(O)C(O)=O
InChI: not available
Instrument: micrOTOF-Q
Instrument type: ESI-TOF
Precursor m/z: 117.056
Precursor type: [M-H]-
Base peak: 117.057
m/z	relative intensity
71.050	42
117.055	999
118.059	65
