Mass spectrum: Decanoyl-L-carnitine; ; ESI-TOF; CE:10 eV; [M-H]-
Name: Decanoyl-L-carnitine
Name: O-Decanoyl-L-carnitine
Name: [(2R)-2-Decanoyloxy-4-oxo-pentyl]-trimethyl-azanium
Class: unknown
Formula: C17H33NO4
Exact mass: 315.240958536
SMILES: CCCCCCCCCC(=O)OC(CC(=O)[O-])C[N+](C)(C)C
InChI: not available
Instrument: micrOTOF-Q
Instrument type: ESI-TOF
Precursor m/z: 316.251
Precursor type: [M-H]-
Base peak: 144.099
m/z	relative intensity
112.986	220
113.989	6
116.928	7
144.103	999
145.106	82
146.107	8
146.939	7
154.973	5
171.139	809
172.142	85
173.144	7
180.975	14
188.093	375
189.096	34
190.098	5
190.929	14
206.971	5
217.144	158
218.148	20
235.925	12
239.125	37
240.128	5
248.960	5
256.079	9
270.242	92
271.244	18
314.231	24
316.248	54
317.249	11
360.237	261
361.240	48
362.243	8
