Mass spectrum: 3-O-Methyl-D-glucopyranose; ; ESI-TOF; CE:10 eV; [M+H]+
Name: 3-O-Methyl-D-glucopyranose
Name: 3-O-Methyl-a-D-glucopyranose
Name: 3-O-Methyl-alpha-D-glucopyranose
Name: 3-O-Methyl-D-Glucose
Name: 3-O-Methylglucose
Class: unknown
Formula: C7H14O6
Exact mass: 194.07903816799998
SMILES: COC1C(O)C(O)OC(CO)C1(O)
InChI: not available
Instrument: micrOTOF-Q
Instrument type: ESI-TOF
Precursor m/z: 165.042
Precursor type: [M+H]+
Base peak: 177.073
m/z	relative intensity
81.033	1
85.028	17
87.044	6
97.028	6
99.045	3
109.028	3
111.044	3
127.038	26
128.042	2
129.052	4
141.053	2
144.077	1
145.049	182
146.052	12
147.053	2
149.025	2
159.064	60
160.069	5
161.066	1
163.060	1
176.518	3
177.077	999
178.079	74
179.080	12
194.103	3
195.087	9
196.089	1
353.148	72
354.152	10
355.153	2
