Mass spectrum: 2-Hydroxy-5-methoxybenzoic acid; MS/MS; ESI-TOF; CE:19 eV; [M+H]+
Name: 2-Hydroxy-5-methoxybenzoic acid
Name: 2-Hydroxy-5-methoxybenzoate
Name: 5-Methoxysalicylate
Name: 2-Hydroxy-5-methoxybenzoic acid
Name: 2-Hydroxy-5-methoxy-Benzoic acid
Name: 5-Methoxy-2-hydroxybenzoate
Name: 5-Methoxy-2-hydroxybenzoic acid
Name: 5-Methoxysalicylic acid
Name: 6-Hydroxy-m-Anisate
Name: 6-Hydroxy-m-Anisic acid
Name: 6-Methoxy-m-anisate
Name: 6-Methoxy-m-anisic acid
Class: unknown
Formula: C8H8O4
Exact mass: 168.042258736
SMILES: COC1=CC=C(O)C(=C1)C(O)=O
InChI: not available
Instrument: micrOTOF-Q
Instrument type: ESI-TOF
Precursor m/z: 169.05
Precursor type: [M+H]+
Base peak: 151.037
m/z	relative intensity
77.037	5
92.026	12
95.049	281
96.053	19
105.044	7
107.014	6
108.021	32
110.036	51
111.043	18
121.040	5
123.044	297
124.048	25
125.060	69
126.063	7
135.056	32
141.055	100
142.057	8
151.039	999
152.043	91
153.042	9
168.043	8
169.050	55
