Mass spectrum: 3-Methylglutaric acid; ; ESI-TOF; CE:10 eV; [M-H]-
Name: 3-Methylglutaric acid
Class: unknown
Formula: C6H10O4
Exact mass: 146.0579088
SMILES: CC(CC(O)=O)CC(O)=O
InChI: not available
Instrument: micrOTOF-Q
Instrument type: ESI-TOF
Precursor m/z: 147.065
Precursor type: [M-H]-
Base peak: 145.048
m/z	relative intensity
83.049	11
101.060	476
102.063	25
127.040	26
135.044	5
145.051	999
146.054	66
147.055	11
