Mass spectrum: Isobutyrylcarnitine; MS/MS; ESI-TOF; CE:10 eV; [M-H]-
Name: Isobutyrylcarnitine
Name: Isobutyryl-1-carnitine,isobutyryl-carnitine,isobutyryl-L-carnitine,iso-butyryl-L(-)-carnitin,,
Class: unknown
Formula: C11H21NO4
Exact mass: 231.147058152
SMILES: CC(C)C(=O)OC(CC(=O)[O-])C[N+](C)(C)C
InChI: not available
Instrument: micrOTOF-Q
Instrument type: ESI-TOF
Precursor m/z: 230.139
Precursor type: [M-H]-
Base peak: 87.0433
m/z	relative intensity
87.044	999
