Mass spectrum: Daidzein; MS/MS; ESI-TOF; CE:22 eV; [M+H]+
Name: Daidzein
Name: 7-Hydroxy-3-(4-hydroxy-phenyl)-4H-1-benzo-pyran-4-one
Name: 4',7-Dihydroxybutisobutflavone
Name: 7-Hydroxy-3-(4-hydroxy-phenyl)-chromone
Class: unknown
Formula: C15H10O4
Exact mass: 254.0579088
SMILES: OC1=CC=C(C=C1)C2=COC=3C=C(O)C=CC=3(C2(=O))
InChI: not available
Instrument: micrOTOF-Q
Instrument type: ESI-TOF
Precursor m/z: 255.068
Precursor type: [M+H]+
Base peak: 255.066
m/z	relative intensity
91.0543	2
119.0488	4
121.0288	1
129.0702	2
133.0275	4
137.0231	37
138.0267	3
145.0285	7
149.0234	2
153.0688	3
157.0643	5
171.0795	4
181.0647	6
182.0699	1
185.0601	2
199.0755	81
200.0785	10
209.0645	3
210.0683	1
211.0753	2
227.0706	41
228.0747	5
237.0551	11
238.0579	2
254.2479	2
255.0673	999
256.0695	145
257.0725	18
258.0745	2
