Mass spectrum: 6-Methyladenine; MS/MS; ESI-TOF; CE:32 eV; [M+H]+
Name: 6-Methyladenine
Name: N6-Methyladenine
Name: (N-6)-Methyladenine
Name: 6-MAP
Name: 6-Methylaminopurine
Name: 6-Monomethylaminopurine
Name: N6-Monomethyladenine
Name: Methyl(purin-6-yl)amine
Name: N-Methyl-adenine
Name: N-Methyl-1H-Purin-6-amine
Class: unknown
Formula: C6H7N5
Exact mass: 149.07014522400002
SMILES: CNC1=NC=NC=2NC=NC1=2
InChI: not available
Instrument: micrOTOF-Q
Instrument type: ESI-TOF
Precursor m/z: 150.078
Precursor type: [M+H]+
Base peak: 108.04
m/z	relative intensity
69.044	42
79.028	78
81.036	76
82.039	112
92.024	70
94.040	283
96.055	160
106.040	140
108.043	999
109.047	96
112.050	44
119.035	175
121.051	39
123.066	377
133.051	130
135.053	178
148.060	49
150.077	301
