Mass spectrum: R-Adrenaline; ; ESI-TOF; CE:10 eV; [M+H]+
Name: R-Adrenaline
Name: L-Adrenaline,(R)-(-)-Adrenaline;,(R)-(-)-Epinephrine;,(R)-(-)-Epirenamine;,(R)-(-)-Adnephrine;,4-[(1R)-1-hydroxy-2-(methylamino)ethyl]-1,2-benzenediol,adrenaline-R,Epinephrine,(-)-3,4-dihydroxy-alpha-((methylamino)methyl)-benzyl alcohol,(-)-Adrenaline,4-(1-hydroxy-2-methylamino-ethyl)benzene-1,2-diol
Class: unknown
Formula: C9H13NO3
Exact mass: 183.089543276
SMILES: CNCC(O)C1=CC=C(O)C(O)=C1
InChI: not available
Instrument: micrOTOF-Q
Instrument type: ESI-TOF
Precursor m/z: 184.097
Precursor type: [M+H]+
Base peak: 166.085
m/z	relative intensity
121.064	7
146.963	7
149.024	22
152.074	7
159.970	7
166.086	999
167.089	97
168.092	9
176.070	32
178.086	69
179.087	8
180.066	152
181.070	18
181.952	8
182.065	8
184.097	114
185.100	11
