Mass spectrum: 5-Methylcytosine; ; ESI-TOF; CE:10 eV; [M-H]-
Name: 5-Methylcytosine
Name: 4-Amino-2-hydroxy-5-methylpyrimidine,4-amino-5-methyl-3H-pyrimidin-2-one
Class: unknown
Formula: C5H7N3O
Exact mass: 125.058911844
SMILES: CC1=CNC(=O)N=C1(N)
InChI: not available
Instrument: micrOTOF-Q
Instrument type: ESI-TOF
Precursor m/z: 256.093
Precursor type: [M-H]-
Base peak: 256.095
m/z	relative intensity
88.9913	10
123.0557	21
124.0516	28
146.9387	20
166.0623	17
256.0930	999
257.0959	114
258.0976	14
292.0699	10
302.0979	224
303.1012	28
356.0143	11
