Mass spectrum: Barbituric acid; ; ESI-TOF; CE:10 eV; [M+H]+
Name: Barbituric acid
Name: Barbiturate
Name: 1,3-Diazinane-2,4,6-trione
Name: 2,4,6-Trioxotetrahydro-2H-pyrimidin-1-ide
Name: Malonylurea
Class: unknown
Formula: C4H4N2O3
Exact mass: 128.02219198799997
SMILES: O=C1CC(=O)NC(=O)N1
InChI: not available
Instrument: micrOTOF-Q
Instrument type: ESI-TOF
Precursor m/z: 127.015
Precursor type: [M+H]+
Base peak: 129.027
m/z	relative intensity
68.996	5
86.023	36
87.025	2
101.034	10
104.034	2
129.029	999
130.032	50
131.033	7
