Mass spectrum: Picolinicacid; ; ESI-TOF; CE:10 eV; [M+H]+
Name: Picolinicacid
Name: a-Picolinic acid,alpha-Picolinic acid,2-Picolinic acid,pyridine-2-carboxylic acid,2-pyridinecarboxylic acid,o-pyridinecarboxylic acid,pyridine-carboxylique-2,alpha-pyridinecarboxylic acid,pyridinecarboxylic acid-(2),2-carboxypyridine,Acide picolique,
Class: unknown
Formula: C6H5NO2
Exact mass: 123.0320284
SMILES: OC(=O)C1CC=CC(=N1)C(O)=O
InChI: not available
Instrument: micrOTOF-Q
Instrument type: ESI-TOF
Precursor m/z: 124.039
Precursor type: [M+H]+
Base peak: 124.038
m/z	relative intensity
124.039	999
125.043	69
126.044	6
