Mass spectrum: 3-(2,4-Dihydroxyphenyl)propionic acid; MS/MS; ESI-TOF; CE:19 eV; [M+H]+
Name: 3-(2,4-Dihydroxyphenyl)propionic acid
Name: 2,4-Dihydroxy-benzenepropanoic acid
Name: 2,4-Dihydroxyhydrocinnamic acid
Name: Hydroumbellic acid
Class: unknown
Formula: C9H10O4
Exact mass: 182.0579088
SMILES: OC(=O)CCC=1C=CC(O)=CC=1(O)
InChI: not available
Instrument: micrOTOF-Q
Instrument type: ESI-TOF
Precursor m/z: 183.065
Precursor type: [M+H]+
Base peak: 123.045
m/z	relative intensity
123.044	999
124.047	82
137.060	113
165.055	75
