Mass spectrum: Hydroferulic acid; MS/MS; ESI-TOF; CE:-19 eV; [M-H]-
Name: Hydroferulic acid
Name: 3-(4-Hydroxy-3-methoxyphenyl)propionic acid
Class: unknown
Formula: C10H12O4
Exact mass: 196.073558864
SMILES: COC1=CC(CCC(O)=O)=CC=C1(O)
InChI: not available
Instrument: micrOTOF-Q
Instrument type: ESI-TOF
Precursor m/z: 195.172
Precursor type: [M-H]-
Base peak: 136.055
m/z	relative intensity
104.027	6
108.021	11
119.050	125
120.053	11
121.029	206
122.034	22
123.043	17
124.017	19
125.024	8
134.038	8
135.044	136
136.052	999
137.055	83
138.056	9
150.032	15
151.040	29
162.032	7
177.055	6
195.065	96
196.069	11
