Mass spectrum: Glycochenodeoxycholic acid; MS/MS; ESI-TOF; CE:-28 eV; [M-H]-
Name: Glycochenodeoxycholic acid
Name: Chenodeoxycholylglycine
Name: Glycine chenodeoxycholate
Name: Glycochenodeoxycholate
Name: N-(3Alpha,7alpha-dihydroxy-5beta-cholan-24-oyl)glycine
Name: [(3Alpha,7alpha-dihydroxy-24-oxo-5beta-cholan-24-yl)amino]acetic acid
Class: unknown
Formula: C26H43NO5
Exact mass: 449.31412347599996
SMILES: [H]C13(CC(O)CCC1(C)C4([H])(CCC2(C)(C([H])(CCC2([H])C4([H])(C(O)C3))C(C)CCC(=O)NCC(O)=O)))
InChI: not available
Instrument: micrOTOF-Q
Instrument type: ESI-TOF
Precursor m/z: 448.307
Precursor type: [M-H]-
Base peak: 448.301
m/z	relative intensity
74.022	18
386.305	2
404.317	1
448.306	999
449.308	282
450.311	42
451.314	5
