Mass spectrum: Phytosphingosine; ; ESI-TOF; CE:10 eV; [M-H]-
Name: Phytosphingosine
Name: 4-Hydroxysphinganine,4-D-hydroxysphinganine  ,1,3,4-octadecanetriol, 2-amino-, (2S-(2R*,3R*,4S*))-,Phytosphingosine hydrochloride ,D-Ribo-1,3,4-trihydroxy-2-aminooctadecane,D-Ribo-2-aminooctadecane-1,3,4-triol
Name: Phytosphingosine, 4-hydroxysphinganine, 4-D-hydroxysphinganine, nchembio.191-comp6, D-Ribo-phytosphingosine, Phytosphingosine hydrochloride, P2795_SIGMA, CHEbi:46961, MolPort-003-959-216, CID122121, LMSP01030001, D-Ribo-2-aminooctadecane-1,3,4-triol, SMP2_000142, NCGC00163609-01, D-Ribo-1,3,4-trihydroxy-2-aminooctadecane, P1765, (2S,3S,4R)-2-amino-1,3,4-octadecanetriol, C12144, 1,3,4-octadecanetriol, 2-amino-, (2S-(2R*,3R*,4S*))-, 554-62-1, PHS
Class: unknown
Formula: C18H39NO3
Exact mass: 317.292994108
SMILES: CCCCCCCCCCCCCCC(O)C(O)C(N)CO
InChI: not available
Instrument: micrOTOF-Q
Instrument type: ESI-TOF
Precursor m/z: 318.302
Precursor type: [M-H]-
Base peak: 362.286
m/z	relative intensity
84.008	3
89.024	1
112.986	3
116.929	2
230.987	2
255.230	1
316.284	17
317.287	4
336.291	1
352.259	3
354.253	1
362.291	999
363.293	208
364.296	28
365.299	3
384.267	2
416.209	2
462.215	1
633.574	8
634.575	3
