Mass spectrum: Pimelicacid; MS/MS; ESI-TOF; CE:13 eV; [M+H]+
Name: Pimelicacid
Name: Heptanedioic acid,6-carboxyhexanoate,Pimelate,Pimelic acid
Class: unknown
Formula: C7H12O4
Exact mass: 160.073558864
SMILES: OC(=O)CCCCCC(O)=O
InChI: not available
Instrument: micrOTOF-Q
Instrument type: ESI-TOF
Precursor m/z: 161.08
Precursor type: [M+H]+
Base peak: 143.073
m/z	relative intensity
73.067	168
97.065	575
115.075	324
125.061	324
143.070	999
144.079	80
