Mass spectrum: Phthalicacid; ; ESI-TOF; CE:10 eV; [M-H]-
Name: Phthalicacid
Name: Phthalate,Phthalic acid,1,2-benzenedicarboxylic acid,Kyselina ftalova,Orthophthalic acid,o-benzenedicarboxylic acid,Sunftal 20,o-phthalic acid,o-dicarboxybenzene,Acide phtalique,Phthalsylure,
Name: CID 1017
Class: unknown
Formula: C8H6O4
Exact mass: 166.026608672
SMILES: OC(=O)C1=CC=CC=C1(C(O)=O)
InChI: not available
Instrument: micrOTOF-Q
Instrument type: ESI-TOF
Precursor m/z: 149.024
Precursor type: [M-H]-
Base peak: 121.028
m/z	relative intensity
77.038	4
112.985	3
121.030	999
122.033	71
123.034	6
146.941	4
165.020	968
166.023	86
167.024	11
