Mass spectrum: Isoferulicacid; ; ESI-TOF; CE:10 eV; [M+H]+
Name: Isoferulicacid
Name: Hesperetic acid,Hespertitinic acid,3-hydroxy-4-methoxycinnamic acid  ,Cinnamic acid, 3-hydroxy-4-methoxy-,2-propenoic acid, 3-(3-hydroxy-4-methoxyphenyl)-,3-hydroxy-4-methoxycinnamic acid, predominantly trans ,
Class: unknown
Formula: C10H10O4
Exact mass: 194.0579088
SMILES: COC=1C=CC(C=CC(=O)O)=CC=1(O)
InChI: not available
Instrument: micrOTOF-Q
Instrument type: ESI-TOF
Precursor m/z: 193.051
Precursor type: [M+H]+
Base peak: 177.052
m/z	relative intensity
89.039	1
117.033	2
134.035	2
135.043	3
145.028	8
146.959	2
149.058	19
150.061	2
153.054	4
163.039	17
164.043	1
176.500	3
177.056	999
178.058	123
179.059	12
180.061	1
181.951	4
194.057	4
195.065	315
196.068	33
197.071	4
204.967	1
213.074	1
216.041	2
217.046	116
218.049	11
219.051	2
224.127	1
235.058	66
236.062	7
237.065	1
