Mass spectrum: 3-(3-Hydroxyphenyl)propionic acid; ; ESI-TOF; CE:10 eV; [M+H]+
Name: 3-(3-Hydroxyphenyl)propionic acid
Name: Beta-(3-hydroxyphenyl)propionic acid
Name: 3-(3-Hydroxy-phenyl)propanoic acid
Name: 3-Hydroxydihydrocinnamic acid
Name: 3-(m-Hydroxyphenyl)propionic acid
Name: 3-(3-Hydroxyphenyl)propionate
Name: 3-(m-Hydroxyphenyl)propionate
Name: b-(3-Hydroxyphenyl)propionic acid
Name: 3HPP
Name: 3-Hydroxybenzenepropanoic acid
Name: 3-Hydroxyphenylpropionic acid
Name: 3-(3-Hydroxyphenyl)propanoate
Name: Dihydro-3-coumaric acid
Name: 3-Hydroxyphenylpropanoate
Name: 3-Hydroxyphenylpropionate
Name: m-Hydroxyphenylpropionate
Name: b-(3-Hydroxyphenyl)propionate
Name: b-(m-Hydroxyphenyl)propionic acid
Name: b-(m-Hydroxyphenyl)propionate
Name: m-Hydroxy-hydrocinnamic acid
Name: Beta-(3-hydroxyphenyl)propionate
Name: Beta-(m-hydroxyphenyl)propionic acid
Name: Beta-(m-hydroxyphenyl)propionate
Name: 3-Hydroxydihydrocinnamate
Name: Dihydro-m-coumarate
Name: Dihydro-m-coumaric acid
Name: MHPP
Name: m-Hydroxy-hydrocinnamate
Name: m-Hydroxyphenylpropionic acid
Class: unknown
Formula: C9H10O3
Exact mass: 166.06299417999998
SMILES: OC(=O)CCC=1C=CC=C(O)C=1
InChI: not available
Instrument: micrOTOF-Q
Instrument type: ESI-TOF
Precursor m/z: 181.051
Precursor type: [M+H]+
Base peak: 149.059
m/z	relative intensity
77.038	8
79.053	3
91.054	30
92.057	2
93.070	38
94.073	3
95.049	21
102.046	2
103.054	54
104.058	5
105.045	11
107.049	121
108.053	9
121.065	922
122.069	79
123.070	5
148.599	2
149.060	999
150.063	97
151.065	9
166.062	3
167.070	192
168.074	18
169.075	2
189.052	384
190.056	33
191.059	4
