Mass spectrum: 4-Hydroxyhippuric acid; MS/MS; ESI-TOF; CE:19 eV; [M+H]+
Name: 4-Hydroxyhippuric acid
Name: 4-Hydroxybenzoylglycine
Name: N-(4-Hydroxybenzoyl)glycine
Name: p-Hydroxyhippuric acid
Class: unknown
Formula: C9H9NO4
Exact mass: 195.05315776799998
SMILES: O=C(O)CNC(=O)C=1C=CC(O)=CC=1
InChI: not available
Instrument: micrOTOF-Q
Instrument type: ESI-TOF
Precursor m/z: 196.061
Precursor type: [M+H]+
Base peak: 121.029
m/z	relative intensity
111.044	13
121.029	999
122.032	80
123.035	6
