Mass spectrum: Ribitol; ; ESI-TOF; CE:10 eV; [M+H]+
Name: Ribitol
Name: Adonitol,meso-ribitol,
Class: unknown
Formula: C5H12O5
Exact mass: 152.06847348399998
SMILES: OCC(O)C(O)C(O)CO
InChI: not available
Instrument: micrOTOF-Q
Instrument type: ESI-TOF
Precursor m/z: 153.076
Precursor type: [M+H]+
Base peak: 153.076
m/z	relative intensity
153.076	999
154.079	57
155.080	12
