Mass spectrum: 3-Hydroxy-3-phenylpropionic acid; ; ESI-TOF; CE:10 eV; [M+H]+
Name: 3-Hydroxy-3-phenylpropionic acid
Name: 3-Hydroxy-3-phenyl-propanoic acid
Name: Beta-hydroxy-benzenepropanoic acid
Name: Beta-hydroxyphenylpropionic acid
Class: unknown
Formula: C9H10O3
Exact mass: 166.06299417999998
SMILES: OC(=O)CC(O)C=1C=CC=CC=1
InChI: not available
Instrument: micrOTOF-Q
Instrument type: ESI-TOF
Precursor m/z: 165.055
Precursor type: [M+H]+
Base peak: 149.059
m/z	relative intensity
77.037	5
79.053	14
95.049	11
102.047	3
103.054	133
104.058	16
105.044	12
107.049	38
131.049	534
132.052	54
133.064	70
134.068	8
147.043	6
149.060	999
150.063	93
151.066	9
164.048	5
165.054	24
167.068	16
189.052	636
190.056	55
191.061	7
