Mass spectrum: 3,4-Dimethoxyphenylacetic acid; ; ESI-TOF; CE:10 eV; [M+H]+
Name: 3,4-Dimethoxyphenylacetic acid
Name: (3,4-Dimethoxyphenyl)acetate
Name: (3,4-Dimethoxyphenyl)acetic acid
Name: 3,4-(Dimethoxy)benzeneacetic acid
Name: 3,4-Dimethoxybenzeneacetate
Name: 3,4-Dimethoxybenzeneacetic acid
Name: 3,4-Dimethoxyphenyl acetic acid
Name: 3,4-Dimethoxyphenylacetate
Name: Homoveratrate
Name: Homoveratric acid
Class: unknown
Formula: C10H12O4
Exact mass: 196.073558864
SMILES: COC1=CC=C(CC(O)=O)C=C1(OC)
InChI: not available
Instrument: micrOTOF-Q
Instrument type: ESI-TOF
Precursor m/z: 167.034
Precursor type: [M+H]+
Base peak: 197.082
m/z	relative intensity
197.081	999
198.084	111
199.086	14
200.089	1
