Mass spectrum: Hexanoyl-L-carnitine; MS/MS; ESI-TOF; CE:23 eV; [M+H]+
Name: Hexanoyl-L-carnitine
Name: (3R)-3-Hexanoyloxy-4-trimethylazaniumylbutanoate
Name: (R)-Caproylcarnitine
Name: L-Hexanoylcarnitine
Name: O-Hexanoyl-R-carnitine
Class: unknown
Formula: C13H25NO4
Exact mass: 259.17835828
SMILES: CCCCCC(=O)OC(CC(=O)[O-])C[N+](C)(C)C
InChI: not available
Instrument: micrOTOF-Q
Instrument type: ESI-TOF
Precursor m/z: 260.188
Precursor type: [M+H]+
Base peak: 85.03
m/z	relative intensity
85.029	999
86.032	41
99.081	44
117.091	5
144.102	36
201.114	67
202.117	6
260.188	50
261.192	6
