Mass spectrum: 3,4-Dimethoxyphenylacetic acid; ; ESI-TOF; CE:10 eV; [M+H]+
Name: 3,4-Dimethoxyphenylacetic acid
Name: (3,4-Dimethoxyphenyl)acetate
Name: (3,4-Dimethoxyphenyl)acetic acid
Name: 3,4-(Dimethoxy)benzeneacetic acid
Name: 3,4-Dimethoxybenzeneacetate
Name: 3,4-Dimethoxybenzeneacetic acid
Name: 3,4-Dimethoxyphenyl acetic acid
Name: 3,4-Dimethoxyphenylacetate
Name: Homoveratrate
Name: Homoveratric acid
Class: unknown
Formula: C10H12O4
Exact mass: 196.073558864
SMILES: COC1=CC=C(CC(O)=O)C=C1(OC)
InChI: not available
Instrument: micrOTOF-Q
Instrument type: ESI-TOF
Precursor m/z: 197.081
Precursor type: [M+H]+
Base peak: 151.072
m/z	relative intensity
91.054	2
107.050	7
108.057	4
135.045	4
136.052	4
137.058	1
139.073	1
149.023	1
150.614	3
151.077	999
152.079	125
153.081	11
167.068	2
182.058	5
196.073	11
197.081	350
198.084	37
199.086	5
219.063	204
220.066	22
221.067	3
