Mass spectrum: Barbituric acid; MS/MS; ESI-TOF; CE:17 eV; [M+H]+
Name: Barbituric acid
Name: Barbiturate
Name: 1,3-Diazinane-2,4,6-trione
Name: 2,4,6-Trioxotetrahydro-2H-pyrimidin-1-ide
Name: Malonylurea
Class: unknown
Formula: C4H4N2O3
Exact mass: 128.02219198799997
SMILES: O=C1CC(=O)NC(=O)N1
InChI: not available
Instrument: micrOTOF-Q
Instrument type: ESI-TOF
Precursor m/z: 129.029
Precursor type: [M+H]+
Base peak: 68.9949
m/z	relative intensity
68.996	999
86.023	983
87.024	53
101.034	120
129.029	765
130.031	52
