Mass spectrum: 2-Deoxyguanosine; ; ESI-TOF; CE:10 eV; [M-H]-
Name: 2-Deoxyguanosine
Name: Guanine deoxy nucleoside
Name: Desoxyguanosine
Name: Guanine deoxyriboside
Name: 2-Amino-9-(2-deoxy-9-beta-D-ribofuranosyl)-9H-purin-6-ol,dG,9-(2-Deoxy-b-D-erythro-pentofuranosyl)guanine
Name: 2-Amino-9-[(2R,4R,5S)-4-hydroxy-5-(hydroxymethyl)oxolan-2-yl]-3H-purin-6-one
Name: 2-Amino-9-[4-hydroxy-5-(hydroxymethyl)oxolan-2-yl]-3H-purin-6-one
Name: 9-(2-Deoxy-b-D-erythro-pentofuranosyl)-guanine
Name: 9-(2-Deoxy-beta-D-ribofuranosyl)guanine
Name: Deoxyguanosine
Name: 2'-Deoxyguanosine
Name: 2'-Deoxy-guanosine
Name: 2'-Deoxyguanosine monohydrate
Name: Guanine-2'-deoxyriboside
Class: unknown
Formula: C10H13N5O4
Exact mass: 267.09675389600005
SMILES: NC=2NC(=O)C=3N=CN(C1CC(O)C(CO)O1)C=3(N=2)
InChI: not available
Instrument: micrOTOF-Q
Instrument type: ESI-TOF
Precursor m/z: 124.024
Precursor type: [M-H]-
Base peak: 266.088
m/z	relative intensity
88.9875	13
146.9399	10
150.0418	15
266.0880	999
267.0898	120
268.0943	14
