Mass spectrum: L-Glutamine acid amide ??; ; ESI-TOF; CE:10 eV; [M+H]+
Name: L-Glutamine acid amide ??
Name: Glutamine
Name: L-Glutamine
Name: Levoglutamide
Name: (2S)-2,5-Diamino-5-oxopentanoic acid
Class: unknown
Formula: C5H10N2O3
Exact mass: 146.06914218
SMILES: NC(=O)CCC(N)C(O)=O
InChI: not available
Instrument: micrOTOF-Q
Instrument type: ESI-TOF
Precursor m/z: 293.15
Precursor type: [M+H]+
Base peak: 147.077
m/z	relative intensity
84.045	532
85.048	26
98.059	3
101.069	7
102.054	31
129.066	675
130.068	47
131.070	5
143.081	10
147.076	999
148.078	61
149.027	6
149.079	8
161.091	10
169.058	17
