Mass spectrum: 2-(4-Hydroxyphenyl)propionic acid; ; ESI-TOF; CE:10 eV; [M-H]-
Name: 2-(4-Hydroxyphenyl)propionic acid
Class: unknown
Formula: C9H10O3
Exact mass: 166.06299417999998
SMILES: CC(C(O)=O)C=1C=CC(O)=CC=1
InChI: not available
Instrument: micrOTOF-Q
Instrument type: ESI-TOF
Precursor m/z: 167.071
Precursor type: [M-H]-
Base peak: 165.053
m/z	relative intensity
81.032	2
93.033	5
107.050	2
119.050	42
120.053	4
121.065	42
122.068	4
135.044	3
165.057	999
166.059	107
167.061	10
