Mass spectrum: 2-Furoylglycine; ; ESI-TOF; CE:10 eV; [M+H]+
Name: 2-Furoylglycine
Name: 2-(Furan-2-carbonylamino)acetic acid
Name: (2-Furoylamino)acetic acid
Name: Furfuroylglycine
Name: Furoylglycine
Name: N-(2-Furoyl)glycine
Name: Furoilglicina
Name: Pyromucuric acid
Name: N-2-Furoyl-glycine
Class: unknown
Formula: C7H7NO4
Exact mass: 169.037507704
SMILES: OC(=O)CNC(=O)C1=CC=CO1
InChI: not available
Instrument: micrOTOF-Q
Instrument type: ESI-TOF
Precursor m/z: 163.076
Precursor type: [M+H]+
Base peak: 170.042
m/z	relative intensity
170.045	999
171.048	82
172.050	11
