Mass spectrum: Hesperidin; MS/MS; ESI-TOF; CE:20 eV; [M+H]+
Name: Hesperidin
Name: Hesperetin 7-O-rutinoside
Name: Ciratin
Name: Hesperetin 7-rhamnoglucoside
Name: D: 3594
Name: Hesperitin-7-rutinoside
Class: unknown
Formula: C28H34O15
Exact mass: 610.189770388
SMILES: COC1=CC=C(C=C1(O))C2CC(=O)C=3C(O)=CC(=CC=3(O2))OC5OC(COC4OC(C)C(O)C(O)C4(O))C(O)C(O)C5(O)
InChI: not available
Instrument: micrOTOF-Q
Instrument type: ESI-TOF
Precursor m/z: 611.198
Precursor type: [M+H]+
Base peak: 303.083
m/z	relative intensity
71.048	6
85.028	66
86.031	3
103.039	3
129.055	121
130.058	9
145.049	3
147.065	112
148.069	7
153.018	3
195.029	9
263.055	8
281.066	38
282.070	5
299.077	5
302.096	4
303.087	999
304.090	160
305.093	23
315.085	5
327.087	7
345.097	78
346.100	14
347.104	2
369.098	26
370.101	5
395.115	5
413.124	72
414.128	16
415.129	3
429.119	3
431.134	84
432.138	19
433.140	4
447.130	14
448.132	3
449.145	113
450.148	27
451.150	5
465.140	183
466.143	44
467.145	8
