Mass spectrum: Salicyl amide; MS/MS; ESI-TOF; CE:10 eV; [M-H]-
Name: Salicyl amide
Class: unknown
Formula: C7H7NO2
Exact mass: 137.047678464
SMILES: NC(=O)C1=CC=CC=C1(O)
InChI: not available
Instrument: micrOTOF-Q
Instrument type: ESI-TOF
Precursor m/z: 136.04
Precursor type: [M-H]-
Base peak: 118.028
m/z	relative intensity
91.018	427
93.034	934
94.036	72
118.029	999
119.032	79
136.040	538
137.043	46
