Mass spectrum: Methyl-b-D-galactopyranoside; ; ESI-TOF; CE:10 eV; [M+H]+
Name: Methyl-b-D-galactopyranoside
Name: Methyl b-D-galactoside
Class: unknown
Formula: C7H14O6
Exact mass: 194.07903816799998
SMILES: COC1OC(CO)C(O)C(O)C1(O)
InChI: not available
Instrument: micrOTOF-Q
Instrument type: ESI-TOF
Precursor m/z: 195.088
Precursor type: [M+H]+
Base peak: 195.084
m/z	relative intensity
85.030	7
91.040	11
97.029	8
103.040	2
103.123	2
115.040	2
127.040	15
145.050	35
146.053	3
149.023	3
161.050	2
162.557	2
163.061	956
164.064	57
165.066	11
170.082	3
181.072	12
185.033	2
189.041	3
190.025	4
194.476	2
195.088	999
196.091	75
197.092	14
204.086	2
206.040	3
212.114	71
213.118	6
214.064	29
214.564	6
217.070	85
218.073	7
221.049	3
221.550	2
222.049	46
222.551	8
223.052	12
223.553	1
224.048	4
224.128	3
233.043	4
246.147	5
295.018	3
303.107	2
311.106	46
311.609	11
312.107	3
318.096	9
318.597	6
319.093	133
319.595	35
320.095	29
320.594	8
321.091	10
321.590	2
325.117	18
326.120	2
357.145	45
358.148	5
359.151	2
389.172	37
390.176	6
