Mass spectrum: 3-(2-Hydroxyphenyl)propionic acid; MS/MS; ESI-TOF; CE:18 eV; [M+H]+
Name: 3-(2-Hydroxyphenyl)propionic acid
Name: 2-Hydroxyhydrocinnamic acid
Name: 2-Hydroxyphenylpropanoate
Name: 2-Hydroxyphenylpropionic acid
Name: 3-(2-Hydroxyphenyl)propanoate
Name: 3-(2-Hydroxyphenyl)propionate
Name: Melilotate
Name: Melilotic acid
Class: unknown
Formula: C9H10O3
Exact mass: 166.06299417999998
SMILES: OC(=O)CCC=1C=CC=CC=1(O)
InChI: not available
Instrument: micrOTOF-Q
Instrument type: ESI-TOF
Precursor m/z: 149.059
Precursor type: [M+H]+
Base peak: 107.048
m/z	relative intensity
79.053	57
91.054	32
93.070	42
95.049	36
103.055	76
107.049	999
108.052	64
121.064	246
149.059	245
150.062	24
