Mass spectrum: Gentisic acid; ; ESI-TOF; CE:10 eV; [M-H]-
Name: Gentisic acid
Name: 2,5-Dihydroxybenzoate
Name: 2,5-Dioxybenzoate
Name: 2,5-Dioxybenzoic acid
Name: 5-Hydroxysalicylic acid
Name: Carboxyhydroquinone
Name: Gentisate
Name: Hydroquinonecarboxylic acid
Class: unknown
Formula: C7H6O4
Exact mass: 154.026608672
SMILES: OC1=CC=C(O)C(=C1)C(O)=O
InChI: not available
Instrument: micrOTOF-Q
Instrument type: ESI-TOF
Precursor m/z: 169.015
Precursor type: [M-H]-
Base peak: 153.019
m/z	relative intensity
85.027	6
95.012	5
108.021	42
109.029	168
110.033	11
123.009	7
146.941	5
153.020	999
154.023	68
155.022	10
329.026	47
330.030	8
