Mass spectrum: 5-Methylcytosine; ; ESI-TOF; CE:10 eV; [M-H]-
Name: 5-Methylcytosine
Name: 4-Amino-2-hydroxy-5-methylpyrimidine,4-amino-5-methyl-3H-pyrimidin-2-one
Class: unknown
Formula: C5H7N3O
Exact mass: 125.058911844
SMILES: CC1=CNC(=O)N=C1(N)
InChI: not available
Instrument: micrOTOF-Q
Instrument type: ESI-TOF
Precursor m/z: 256.093
Precursor type: [M-H]-
Base peak: 256.097
m/z	relative intensity
256.094	999
257.097	123
258.098	17
259.102	1
