Mass spectrum: Triethanolamine; MS/MS; ESI-TOF; CE:18 eV; [M+H]+
Name: Triethanolamine
Name: 2,2',2''-Nitrilotriethanol
Name: Alkanolamine
Name: Stingkill
Name: Trolamine
Name: Tris(2-hydroxyethyl)amine
Class: unknown
Formula: C6H15NO3
Exact mass: 149.10519333999997
SMILES: OCCN(CCO)CCO
InChI: not available
Instrument: micrOTOF-Q
Instrument type: ESI-TOF
Precursor m/z: 150.113
Precursor type: [M+H]+
Base peak: 132.099
m/z	relative intensity
68.049	8
70.064	371
71.067	19
84.080	33
86.095	23
88.075	709
89.078	34
96.080	6
106.086	101
107.089	5
114.092	224
115.094	16
132.102	999
133.105	71
134.107	7
150.113	809
151.115	58
152.117	7
