Mass spectrum: 1-Methylxanthine; MS/MS; ESI-TOF; CE:10 eV; [M-H]-
Name: 1-Methylxanthine
Class: unknown
Formula: C6H6N4O2
Exact mass: 166.049075432
SMILES: CN1C(=O)NC=2N=CNC=2(C1(=O))
InChI: not available
Instrument: micrOTOF-Q
Instrument type: ESI-TOF
Precursor m/z: 165.042
Precursor type: [M-H]-
Base peak: 165.041
m/z	relative intensity
108.020	588
109.022	28
126.030	491
127.032	26
152.010	23
165.041	999
166.044	70
