Mass spectrum: 2-Furoylglycine; MS/MS; ESI-TOF; CE:-19 eV; [M-H]-
Name: 2-Furoylglycine
Name: 2-(Furan-2-carbonylamino)acetic acid
Name: (2-Furoylamino)acetic acid
Name: Furfuroylglycine
Name: Furoylglycine
Name: N-(2-Furoyl)glycine
Name: Furoilglicina
Name: Pyromucuric acid
Name: N-2-Furoyl-glycine
Class: unknown
Formula: C7H7NO4
Exact mass: 169.037507704
SMILES: OC(=O)CNC(=O)C1=CC=CO1
InChI: not available
Instrument: micrOTOF-Q
Instrument type: ESI-TOF
Precursor m/z: 168.03
Precursor type: [M-H]-
Base peak: 124.043
m/z	relative intensity
67.017	260
68.015	83
95.012	820
96.042	192
100.002	76
124.039	999
125.043	80
168.029	250
