Mass spectrum: 3-(2,4-Dihydroxyphenyl)propionic acid; ; ESI-TOF; CE:10 eV; [M+H]+
Name: 3-(2,4-Dihydroxyphenyl)propionic acid
Name: 2,4-Dihydroxy-benzenepropanoic acid
Name: 2,4-Dihydroxyhydrocinnamic acid
Name: Hydroumbellic acid
Class: unknown
Formula: C9H10O4
Exact mass: 182.0579088
SMILES: OC(=O)CCC=1C=CC(O)=CC=1(O)
InChI: not available
Instrument: micrOTOF-Q
Instrument type: ESI-TOF
Precursor m/z: 183.065
Precursor type: [M+H]+
Base peak: 165.054
m/z	relative intensity
95.047	8
123.044	418
124.047	31
137.057	18
146.960	10
149.023	20
164.046	16
165.054	999
166.058	92
167.055	12
181.951	26
182.056	7
183.065	291
184.068	30
205.047	421
206.051	42
