Mass spectrum: 2,3-Dihydroxybenzoic acid; MS/MS; ESI-TOF; CE:18 eV; [M+H]+
Name: 2,3-Dihydroxybenzoic acid
Name: 2,3-Dihydroxybenzoate
Name: 2-Pyrocatechuate
Name: 2-Pyrocatechuic acid
Name: 3-Hydroxysalicylate
Name: 3-Hydroxysalicylic acid
Name: Catechol-3-carboxylate
Name: Catecholcarboxylate
Name: Catecholcarboxylic acid
Name: DHBA
Name: DOBK
Name: o-Pyrocatechuate
Name: o-Pyrocatechuic acid
Name: Pyrocatechuate
Name: Pyrocatechuic acid
Class: unknown
Formula: C7H6O4
Exact mass: 154.026608672
SMILES: OC(=O)C1=CC=CC(O)=C1(O)
InChI: not available
Instrument: micrOTOF-Q
Instrument type: ESI-TOF
Precursor m/z: 155.034
Precursor type: [M+H]+
Base peak: 137.021
m/z	relative intensity
81.033	102
82.036	5
93.034	2
96.021	4
107.013	33
108.017	2
109.029	106
110.032	7
111.043	5
125.024	4
127.039	37
128.043	2
136.605	2
137.024	999
138.027	79
139.028	9
155.035	5
