Mass spectrum: 2-Keto-D-gluconic acid; ; ESI-TOF; CE:10 eV; [M+H]+
Name: 2-Keto-D-gluconic acid
Name: D-Arabino-2-hexulopyranosonic acid hemicalcium salt hydrate
Name: 2-Keto-D-gluconic acid hemicalcium salt hydrate
Name: 2-Oxogluconic acid
Name: Alpha-D-Arabino-2-hexulosonic acid
Name: 2-Dehydro-D-gluconic acid
Name: Calcium 2-keto-D-gluconate
Name: D-Arabino-hex-2-ulosonic acid
Class: unknown
Formula: C6H10O7
Exact mass: 194.04265266
SMILES: OCC(O)C(O)C(O)C(=O)C(O)=O
InChI: not available
Instrument: micrOTOF-Q
Instrument type: ESI-TOF
Precursor m/z: 193.035
Precursor type: [M+H]+
Base peak: 195.05
m/z	relative intensity
85.0270	80
87.0078	26
97.0262	26
103.0387	31
105.0177	100
113.0241	47
119.0812	24
121.0476	21
129.0183	86
131.0327	63
141.0180	524
142.0200	43
144.0797	25
149.0279	56
159.0284	599
160.0333	40
177.0392	895
178.0432	58
179.0439	19
181.9520	37
194.0669	62
195.0496	999
196.0505	64
197.0515	21
199.0237	25
205.0204	61
212.0770	54
214.0267	99
217.0324	117
218.0608	24
224.1276	36
284.0346	47
293.0367	56
302.0450	51
311.0502	138
311.5513	31
317.0525	58
335.0641	141
353.0755	164
354.0798	26
