Mass spectrum: Diglycolic acid; MS/MS; ESI-TOF; CE:-18 eV; [M-H]-
Name: Diglycolic acid
Name: 2,2-Oxydiacetic acid
Name: 2-(Carboxymethoxy)acetic acid
Name: 3-Oxapentanedioic acid
Name: Anhydroglycolic acid
Name: Bis(carboxymethyl)ether
Name: Oxodiacetic acid
Name: Oxybisacetic acid
Name: Oxydiacetic acid
Name: Oxydiethanolic acid
Class: unknown
Formula: C4H6O5
Exact mass: 134.021523292
SMILES: OC(=O)COCC(O)=O
InChI: not available
Instrument: micrOTOF-Q
Instrument type: ESI-TOF
Precursor m/z: 133.015
Precursor type: [M-H]-
Base peak: 75.0052
m/z	relative intensity
72.992	20
75.007	999
76.011	28
77.011	8
89.023	283
90.026	10
133.014	49
