Mass spectrum: 5'-Deoxyadenosine; ; ESI-TOF; CE:10 eV; [M-H]-
Name: 5'-Deoxyadenosine
Name: 5-Deoxyadenosine
Name: 5'-Deoxy-Adenosine
Name: CH3Ado
Class: unknown
Formula: C10H13N5O3
Exact mass: 251.10183927599996
SMILES: CC1OC(C(O)C1(O))N3C=NC=2C(N)=NC=NC=23
InChI: not available
Instrument: micrOTOF-Q
Instrument type: ESI-TOF
Precursor m/z: 256.094
Precursor type: [M-H]-
Base peak: 250.091
m/z	relative intensity
75.008	33
88.995	52
96.968	88
107.037	28
112.986	22
115.039	397
117.055	30
134.047	868
135.048	63
146.940	86
250.094	999
251.095	135
286.072	30
296.098	792
297.104	111
350.017	105
