Mass spectrum: Chlorogenic acid; MS/MS; ESI-TOF; CE:-27 eV; [M-H]-
Name: Chlorogenic acid
Name: Chlorogenate
Name: 3-(3,4-Dihydroxycinnamoyl)quinic acid
Name: 3-Caffeoylquinic acid
Name: 3-O-Caffeoylquinic acid
Name: 5-O-(3,4-Dihydroxycinnamoyl)-L-quinic acid
Class: unknown
Formula: C16H18O9
Exact mass: 354.095082156
SMILES: O=C(C=CC1=CC=C(O)C(O)=C1)OC2CC(O)(CC(O)C2(O))C(O)=O
InChI: not available
Instrument: micrOTOF-Q
Instrument type: ESI-TOF
Precursor m/z: 353.087
Precursor type: [M-H]-
Base peak: 191.056
m/z	relative intensity
85.028	6
87.009	2
93.033	4
111.044	2
127.038	3
135.044	3
161.023	18
162.027	2
173.045	5
179.034	8
180.035	1
191.056	999
192.059	72
193.060	13
