Mass spectrum: 6-Methylnicotinic acid; ; ESI-TOF; CE:10 eV; [M+H]+
Name: 6-Methylnicotinic acid
Name: 6-Methylpyridine-3-carboxylic acid
Class: unknown
Formula: C7H7NO2
Exact mass: 137.047678464
SMILES: CC1=CC=C(C=N1)C(O)=O
InChI: not available
Instrument: micrOTOF-Q
Instrument type: ESI-TOF
Precursor m/z: 136.04
Precursor type: [M+H]+
Base peak: 138.056
m/z	relative intensity
92.049	6
94.064	10
110.060	13
113.963	2
128.950	3
131.973	3
137.631	2
138.055	999
139.057	78
140.059	7
