Mass spectrum: Genistein; ; ESI-TOF; CE:10 eV; [M-H]-
Name: Genistein
Name: 4',5,7-Trihydroxyisoflavone
Name: 5,7,4'-Trihydroxyisoflavone
Name: 5,7-Dihydroxy-3-(4-hydroxyphenyl)-4H-1-benzopyran-4-one
Class: unknown
Formula: C15H10O5
Exact mass: 270.05282342
SMILES: OC1=CC=C(C=C1)C2=COC=3C=C(O)C=C(O)C=3(C2(=O))
InChI: not available
Instrument: micrOTOF-Q
Instrument type: ESI-TOF
Precursor m/z: 271.062
Precursor type: [M-H]-
Base peak: 269.046
m/z	relative intensity
112.9852	7
129.9740	2
146.9428	4
180.9776	5
190.9279	2
235.9257	2
248.9593	3
269.0448	999
270.0473	157
271.0493	20
272.0533	2
