Mass spectrum: 2-Hydroxy-5-methoxybenzoic acid; ; ESI-TOF; CE:10 eV; [M+H]+
Name: 2-Hydroxy-5-methoxybenzoic acid
Name: 2-Hydroxy-5-methoxybenzoate
Name: 5-Methoxysalicylate
Name: 2-Hydroxy-5-methoxybenzoic acid
Name: 2-Hydroxy-5-methoxy-Benzoic acid
Name: 5-Methoxy-2-hydroxybenzoate
Name: 5-Methoxy-2-hydroxybenzoic acid
Name: 5-Methoxysalicylic acid
Name: 6-Hydroxy-m-Anisate
Name: 6-Hydroxy-m-Anisic acid
Name: 6-Methoxy-m-anisate
Name: 6-Methoxy-m-anisic acid
Class: unknown
Formula: C8H8O4
Exact mass: 168.042258736
SMILES: COC1=CC=C(O)C(=C1)C(O)=O
InChI: not available
Instrument: micrOTOF-Q
Instrument type: ESI-TOF
Precursor m/z: 149.06
Precursor type: [M+H]+
Base peak: 151.037
m/z	relative intensity
95.049	14
107.012	6
110.036	5
122.096	4
123.044	27
125.060	88
126.063	7
130.065	3
135.054	6
141.055	8
144.079	5
149.024	6
150.029	3
150.573	3
151.039	999
152.042	86
153.028	13
161.021	5
162.091	4
167.034	9
168.042	19
169.050	694
170.053	63
171.053	8
174.999	53
176.004	5
207.027	175
208.031	15
209.037	4
