Mass spectrum: Chlormequat; MS/MS; ESI-TOF; CE:17 eV; [M+H]+
Name: Chlormequat
Name: Cycogan
Name: Antywylegacz
Name: Ce ce ce
Name: Cyclocel
Name: Cyocel
Name: Chlorcholinchlorid
Name: Retacel
Name: Stabilan
Name: Cycogan extra
Class: unknown
Formula: C5H13ClN
Exact mass: 122.07365209599999
SMILES: C[N+](C)(C)CCCl
InChI: not available
Instrument: micrOTOF-Q
Instrument type: ESI-TOF
Precursor m/z: 123.076
Precursor type: [M+H]+
Base peak: 122.072
m/z	relative intensity
94.042	12
106.042	8
122.074	999
123.077	59
124.070	375
125.074	20
