Mass spectrum: Tricarballic acid; ; ESI-TOF; CE:10 eV; [M-H]-
Name: Tricarballic acid
Class: unknown
Formula: C6H8O6
Exact mass: 176.03208797599999
SMILES: OC(=O)CC(CC(O)=O)C(O)=O
InChI: not available
Instrument: micrOTOF-Q
Instrument type: ESI-TOF
Precursor m/z: 175.025
Precursor type: [M-H]-
Base peak: 175.021
m/z	relative intensity
175.025	999
176.028	67
177.029	14
