Mass spectrum: 2-Hydroxy-5-methoxybenzoic acid; MS/MS; ESI-TOF; CE:-19 eV; [M-H]-
Name: 2-Hydroxy-5-methoxybenzoic acid
Name: 2-Hydroxy-5-methoxybenzoate
Name: 5-Methoxysalicylate
Name: 2-Hydroxy-5-methoxybenzoic acid
Name: 2-Hydroxy-5-methoxy-Benzoic acid
Name: 5-Methoxy-2-hydroxybenzoate
Name: 5-Methoxy-2-hydroxybenzoic acid
Name: 5-Methoxysalicylic acid
Name: 6-Hydroxy-m-Anisate
Name: 6-Hydroxy-m-Anisic acid
Name: 6-Methoxy-m-anisate
Name: 6-Methoxy-m-anisic acid
Class: unknown
Formula: C8H8O4
Exact mass: 168.042258736
SMILES: COC1=CC=C(O)C(=C1)C(O)=O
InChI: not available
Instrument: micrOTOF-Q
Instrument type: ESI-TOF
Precursor m/z: 167.035
Precursor type: [M-H]-
Base peak: 108.021
m/z	relative intensity
108.021	999
109.024	60
110.026	5
152.011	267
153.014	22
154.016	3
167.034	16
