Mass spectrum: Hydroferulic acid; ; ESI-TOF; CE:10 eV; [M-H]-
Name: Hydroferulic acid
Name: 3-(4-Hydroxy-3-methoxyphenyl)propionic acid
Class: unknown
Formula: C10H12O4
Exact mass: 196.073558864
SMILES: COC1=CC(CCC(O)=O)=CC=C1(O)
InChI: not available
Instrument: micrOTOF-Q
Instrument type: ESI-TOF
Precursor m/z: 197.081
Precursor type: [M-H]-
Base peak: 195.063
m/z	relative intensity
195.066	999
196.070	111
197.072	14
198.074	1
