Mass spectrum: D-Hexanolactone; ; ESI-TOF; CE:10 eV; [M+H]+
Name: D-Hexanolactone
Name: (RS)-D-hexalactone
Name: 5-Hexanolide
Name: 5-Hydroxy-hexanoic acid D-lactone
Name: 5-Hydroxyhexanoic acid lactone
Name: 6-Methyl-D-valerolactone
Name: 6-Methyloxan-2-one
Name: 6-Methylvalerolactone
Name: D-Caprolactone
Name: D-Hexalactone
Name: D-Hexanolide
Name: Hexanolactone
Name: D-Methyl-D-valerolactone
Name: Tetrahydro-6-methyl-2H-pyran-2-one
Class: unknown
Formula: C6H10O2
Exact mass: 114.06807956
SMILES: CC1CCCC(=O)O1
InChI: not available
Instrument: micrOTOF-Q
Instrument type: ESI-TOF
Precursor m/z: 115.075
Precursor type: [M+H]+
Base peak: 115.078
m/z	relative intensity
69.069	24
73.064	11
97.065	49
115.075	999
116.079	63
117.080	7
133.086	270
134.089	18
137.056	223
138.058	20
155.068	190
156.071	13
198.567	48
199.069	79
199.572	19
200.080	27
201.062	11
207.576	86
208.076	406
208.578	86
209.087	44
209.588	9
210.072	6
221.569	60
222.070	16
301.075	83
302.078	12
303.105	13
318.080	215
319.086	219
320.089	35
321.090	33
