Mass spectrum: D-Lyxose; ; ESI-TOF; CE:10 eV; [M-H]-
Name: D-Lyxose
Name: D-Lyx
Name: D-Lyxo-pentose
Class: unknown
Formula: C5H10O5
Exact mass: 150.05282341999998
SMILES: OC1COC(O)C(O)C1(O)
InChI: not available
Instrument: micrOTOF-Q
Instrument type: ESI-TOF
Precursor m/z: 265.229
Precursor type: [M-H]-
Base peak: 149.044
m/z	relative intensity
149.046	999
150.049	57
151.050	12
