Mass spectrum: 2-Hydroxysebacic acid; MS/MS; ESI-TOF; CE:20 eV; [M+H]+
Name: 2-Hydroxysebacic acid
Name: 2-Hydroxy-decandioate
Name: 2-Hydroxy-decandioic acid
Name: 2-Hydroxydecanedioate
Name: 2-Hydroxy-decanedioic acid
Name: 2-Hydroxysebacate
Name: a-Hydroxysebasate
Name: a-Hydroxysebasic acid
Name: Alpha-hydroxysebasate
Name: Alpha-hydroxysebasic acid
Class: unknown
Formula: C10H18O5
Exact mass: 218.11542367599998
SMILES: O=C(O)CCCCCCCC(O)C(=O)O
InChI: not available
Instrument: micrOTOF-Q
Instrument type: ESI-TOF
Precursor m/z: 219.123
Precursor type: [M+H]+
Base peak: 109.103
m/z	relative intensity
67.053	92
81.068	53
83.084	61
93.070	32
95.083	33
109.101	999
110.104	84
119.086	51
137.095	49
155.105	66
173.117	313
174.119	39
