Mass spectrum: 3-Hydroxybenzoic acid; ; ESI-TOF; CE:10 eV; [M-H]-
Name: 3-Hydroxybenzoic acid
Name: 3-Hydroxybenzoate
Name: m-Hydroxybenzoic acid
Name: Meta-hydroxybenzoic acid
Class: unknown
Formula: C7H6O3
Exact mass: 138.03169405199998
SMILES: OC1=CC=CC(=C1)C(O)=O
InChI: not available
Instrument: micrOTOF-Q
Instrument type: ESI-TOF
Precursor m/z: 137.025
Precursor type: [M-H]-
Base peak: 137.022
m/z	relative intensity
137.024	999
138.028	77
139.029	9
