Mass spectrum: R-Adrenaline; ; ESI-TOF; CE:10 eV; [M+H]+
Name: R-Adrenaline
Name: L-Adrenaline,(R)-(-)-Adrenaline;,(R)-(-)-Epinephrine;,(R)-(-)-Epirenamine;,(R)-(-)-Adnephrine;,4-[(1R)-1-hydroxy-2-(methylamino)ethyl]-1,2-benzenediol,adrenaline-R,Epinephrine,(-)-3,4-dihydroxy-alpha-((methylamino)methyl)-benzyl alcohol,(-)-Adrenaline,4-(1-hydroxy-2-methylamino-ethyl)benzene-1,2-diol
Class: unknown
Formula: C9H13NO3
Exact mass: 183.08954327599997
SMILES: CNCC(O)C1=CC=C(O)C(O)=C1
InChI: not available
Instrument: micrOTOF-Q
Instrument type: ESI-TOF
Precursor m/z: 191.056
Precursor type: [M+H]+
Base peak: 166.082
m/z	relative intensity
166.086	999
167.090	102
168.093	9
