Mass spectrum: N-Methyl-L-glutamicacid; MS/MS; ESI-TOF; CE:10 eV; [M+H]+
Name: N-Methyl-L-glutamicacid
Name: 2-(Methylamino)pentanedioic acid
Name: N-Methyl-L-glutamate;,
Class: unknown
Formula: C6H11NO4
Exact mass: 161.068807832
SMILES: CNC(CCC(O)=O)C(O)=O
InChI: not available
Instrument: micrOTOF-Q
Instrument type: ESI-TOF
Precursor m/z: 162.077
Precursor type: [M+H]+
Base peak: 98.0588
m/z	relative intensity
68.053	4
70.068	36
71.073	2
85.029	26
97.778	2
98.060	999
99.063	62
100.066	3
116.070	231
117.073	15
131.034	3
144.065	69
145.069	5
162.077	18
