Mass spectrum: Genistein; MS/MS; ESI-TOF; CE:-23 eV; [M-H]-
Name: Genistein
Name: 4',5,7-Trihydroxyisoflavone
Name: 5,7,4'-Trihydroxyisoflavone
Name: 5,7-Dihydroxy-3-(4-hydroxyphenyl)-4H-1-benzopyran-4-one
Class: unknown
Formula: C15H10O5
Exact mass: 270.05282342
SMILES: OC1=CC=C(C=C1)C2=COC=3C=C(O)C=C(O)C=3(C2(=O))
InChI: not available
Instrument: micrOTOF-Q
Instrument type: ESI-TOF
Precursor m/z: 269.045
Precursor type: [M-H]-
Base peak: 269.042
m/z	relative intensity
91.017	2
107.013	9
133.029	21
134.032	2
135.032	2
151.004	3
153.020	2
157.034	4
159.045	11
161.025	3
169.065	4
180.058	3
181.065	16
182.064	2
183.045	9
196.052	4
197.060	8
199.040	4
201.055	14
213.055	4
224.047	9
225.054	18
226.056	2
227.034	4
240.042	2
241.049	5
269.045	999
270.048	142
271.050	19
272.052	2
