Mass spectrum: 3,4-Dihydroxybenzoic acid; ; ESI-TOF; CE:10 eV; [M+H]+
Name: 3,4-Dihydroxybenzoic acid
Name: 3,4-Dihydroxybenzoate
Name: 4,5-Dihydroxybenzoic acid
Name: 4-Carboxy-1,2-dihydroxybenzene
Name: Beta-Resorcylate
Name: Beta-Resorcylic acid
Name: b-Resorcylate
Name: b-Resorcylic acid
Name: Protocatechuic acid
Name: Protocatechuate
Name: Protocatehuic acid
Class: unknown
Formula: C7H6O4
Exact mass: 154.026608672
SMILES: OC(=O)C=1C=CC(O)=C(O)C=1
InChI: not available
Instrument: micrOTOF-Q
Instrument type: ESI-TOF
Precursor m/z: 155.033
Precursor type: [M+H]+
Base peak: 155.034
m/z	relative intensity
93.033	73
109.028	11
111.044	315
112.048	21
130.064	7
137.023	189
138.027	14
144.080	13
146.960	6
149.022	16
153.017	11
155.033	999
156.036	74
157.038	10
