Mass spectrum: Methyl-b-D-galactopyranoside; ; ESI-TOF; CE:10 eV; [M+H]+
Name: Methyl-b-D-galactopyranoside
Name: Methyl b-D-galactoside
Class: unknown
Formula: C7H14O6
Exact mass: 194.07903816799998
SMILES: COC1OC(CO)C(O)C(O)C1(O)
InChI: not available
Instrument: micrOTOF-Q
Instrument type: ESI-TOF
Precursor m/z: 193.071
Precursor type: [M+H]+
Base peak: 195.09
m/z	relative intensity
195.086	999
196.090	80
197.091	15
