Mass spectrum: Phloreticacid; ; ESI-TOF; CE:10 eV; [M-H]-
Name: Phloreticacid
Name: 3-(4-Hydroxyphenyl)propanoic acid, 3-(p-hydroxyphenyl)propionic acid, 4-hydroxybenzenepropanoic acid, p-hydroxyphenylpropionic acid, Oprea1_221751, H52406_ALDRicH, beta-(p-hydroxyphenyl)propionic acid, 4-hydroxyhydrOCINNAMic acid, hydroxyphenyl propIONic acid, 56190_FLUKA
Name: 4-10-00-00631 (Beilstein Handbook Reference), HPP, InChI=1/C9H10O3/c10-8-4-1-7(2-5-8)3-6-9(11)12/H1-2,4-5,10H,3,6H2,(H,11,12
Name: Beta.-(p-hydroxyphenyl)propionic acid, AC-5144, AI3-31909, DB03897, benzenepropanoic acid, 4-hydroxy- (9CI), LS-77204, 3-(p-hydroxyphenyl)-propIONic acid, H0599, C01744, 501-97-3
Name: CHEbi:32980, EineCS 207-931-3, MolPort-001-769-769, NSC 40949, BB_NC-0339, NSC40949, NSC65596, BRN 2209841, STK803270
Name: Phloretate,hydro-p-coumaric acid,dihydro-p-coumaric acid  ,p-hydroxyhydrocinnamic acid,4-hydroxyhydrocinnamic acid,4-hydroxyphenylpropionic acid  ,uHLORETic acid,3-(4-hydroxyphenyl)propanoic acid  ,3-(4-hydroxyphenyl)propionic acid  ,p-hydroxyphenylpropionic acid  ,benzenepropanoic acid, 4-hydroxy-
Class: unknown
Formula: C9H10O3
Exact mass: 166.06299417999998
SMILES: OC(=O)CCC1=CC=C(O)C=C1
InChI: not available
Instrument: micrOTOF-Q
Instrument type: ESI-TOF
Precursor m/z: 167.07
Precursor type: [M-H]-
Base peak: 165.052
m/z	relative intensity
93.033	10
119.049	3
121.066	18
165.055	999
166.058	96
167.060	10
