Mass spectrum: N-Acetylarginine; ; ESI-TOF; CE:10 eV; [M+H]+
Name: N-Acetylarginine
Name: N2-Acetyl-L-arginine ,N-alpha-L-acetyl-arginine ,N-acetyl-L-arginine ,
Class: unknown
Formula: C8H16N4O3
Exact mass: 216.12224037199996
SMILES: CC(=O)NC(CCCN=C(N)N)C(O)=O
InChI: not available
Instrument: micrOTOF-Q
Instrument type: ESI-TOF
Precursor m/z: 251.091
Precursor type: [M+H]+
Base peak: 217.125
m/z	relative intensity
217.130	999
218.133	104
219.134	11
