Mass spectrum: 4-Phenylbutyric acid; MS/MS; ESI-TOF; CE:18 eV; [M+H]+
Name: 4-Phenylbutyric acid
Class: unknown
Formula: C10H12O2
Exact mass: 164.083729624
SMILES: O=C(O)CCCC=1C=CC=CC=1
InChI: not available
Instrument: micrOTOF-Q
Instrument type: ESI-TOF
Precursor m/z: 147.08
Precursor type: [M+H]+
Base peak: 91.0518
m/z	relative intensity
91.055	999
92.058	79
105.070	59
117.070	48
119.085	40
128.062	46
129.070	388
130.073	44
147.080	439
148.084	51
155.060	12
