Mass spectrum: Guanidinopropionic acid; MS/MS; ESI-TOF; CE:-11 eV; [M-H]-
Name: Guanidinopropionic acid
Name: 3-Carbamimidamidopropanoic acid
Name: 3-Guanidinopropanoate
Name: 3-Guanidinopropanoic acid
Name: 3-Guanidinopropionic acid
Name: Beta-guanadinopropionate
Name: Beta-guanidinopropionic acid
Name: N-(Aminoiminomethyl)-beta-alanine
Class: unknown
Formula: C4H9N3O2
Exact mass: 131.069476528
SMILES: NC(=N)NCCC(O)=O
InChI: not available
Instrument: micrOTOF-Q
Instrument type: ESI-TOF
Precursor m/z: 130.06
Precursor type: [M-H]-
Base peak: 88.0405
m/z	relative intensity
88.038	999
89.041	42
130.062	27
