Mass spectrum: R-Adrenaline; MS/MS; ESI-TOF; CE:10 eV; [M-H]-
Name: R-Adrenaline
Name: L-Adrenaline,(R)-(-)-Adrenaline;,(R)-(-)-Epinephrine;,(R)-(-)-Epirenamine;,(R)-(-)-Adnephrine;,4-[(1R)-1-hydroxy-2-(methylamino)ethyl]-1,2-benzenediol,adrenaline-R,Epinephrine,(-)-3,4-dihydroxy-alpha-((methylamino)methyl)-benzyl alcohol,(-)-Adrenaline,4-(1-hydroxy-2-methylamino-ethyl)benzene-1,2-diol
Class: unknown
Formula: C9H13NO3
Exact mass: 183.089543276
SMILES: CNCC(O)C1=CC=C(O)C(O)=C1
InChI: not available
Instrument: micrOTOF-Q
Instrument type: ESI-TOF
Precursor m/z: 182.082
Precursor type: [M-H]-
Base peak: 164.069
m/z	relative intensity
109.028	25
122.037	406
123.042	66
124.017	48
135.043	23
137.024	92
148.041	41
149.048	340
150.051	30
154.027	369
155.030	30
162.056	28
163.063	18
164.072	999
165.075	91
