Mass spectrum: Dihydrothymine; ; ESI-TOF; CE:10 eV; [M+H]+
Name: Dihydrothymine
Name: 5,6-Dihydrothymine
Name: 5,6-Dihydro-5-methyluracil
Name: 5-Methyl-1,3-diazinane-2,4-dione
Name: 5-Methyldihydropyrimidine-2,4(1H,3H)-dione
Class: unknown
Formula: C5H8N2O2
Exact mass: 128.058577496
SMILES: CC1CNC(=O)NC1(=O)
InChI: not available
Instrument: micrOTOF-Q
Instrument type: ESI-TOF
Precursor m/z: 265.229
Precursor type: [M+H]+
Base peak: 129.062
m/z	relative intensity
84.044	15
86.059	23
112.040	13
129.067	999
130.067	69
131.069	6
147.077	53
148.079	3
149.024	9
