Mass spectrum: N-Acetylisatin; MS/MS; ESI-TOF; CE:-21 eV; [M-H]-
Name: N-Acetylisatin
Name: 1-Acetylisatin
Name: Acetylisatin
Name: 1-Acetyl-indole-2,3-dione
Name: D: 11321
Class: unknown
Formula: C10H7NO3
Exact mass: 189.04259308399998
SMILES: CC(=O)N2C(=O)C(=O)C=1C=CC=CC=12
InChI: not available
Instrument: micrOTOF-Q
Instrument type: ESI-TOF
Precursor m/z: 206.047
Precursor type: [M-H]-
Base peak: 92.0478
m/z	relative intensity
92.050	999
93.053	61
94.055	2
116.052	2
118.030	15
134.062	802
135.064	67
136.046	12
162.056	36
163.058	4
