Mass spectrum: Isovalerylcarnitine; MS/MS; ESI-TOF; CE:10 eV; [M-H]-
Name: Isovalerylcarnitine
Name: 3-Methylbutyrylcarnitine  ,1-propanaminium, 3-carboxy-N,N,N-trimethyl-2-(3-methyl-1-oxobutoxy)-, inner salt, (R)-,
Class: unknown
Formula: C12H23NO4
Exact mass: 245.16270821599997
SMILES: CC(C)CC(=O)OC(CC(=O)[O-])C[N+](C)(C)C
InChI: not available
Instrument: micrOTOF-Q
Instrument type: ESI-TOF
Precursor m/z: 244.155
Precursor type: [M-H]-
Base peak: 101.062
m/z	relative intensity
101.059	999
