Mass spectrum: Hexanoylglycine; ; ESI-TOF; CE:10 eV; [M+H]+
Name: Hexanoylglycine
Name: 2-(Hexanoylamino)acetic acid
Name: N-(1-Oxohexyl)-glycine
Name: N-Caproylglycine
Class: unknown
Formula: C8H15NO3
Exact mass: 173.10519333999997
SMILES: CCCCCC(=O)NCC(O)=O
InChI: not available
Instrument: micrOTOF-Q
Instrument type: ESI-TOF
Precursor m/z: 174.113
Precursor type: [M+H]+
Base peak: 174.108
m/z	relative intensity
174.112	999
175.116	93
176.118	10
