Mass spectrum: BOC Valine; ; ESI-TOF; CE:10 eV; [M-H]-
Name: BOC Valine
Class: unknown
Formula: C10H19NO4
Exact mass: 217.13140808799997
SMILES: CC(C)C(NC(=O)OC(C)(C)C)C(O)=O
InChI: not available
Instrument: micrOTOF-Q
Instrument type: ESI-TOF
Precursor m/z: 216.123
Precursor type: [M-H]-
Base peak: 142.052
m/z	relative intensity
99.044	19
112.986	15
142.050	999
143.053	74
144.054	8
146.938	9
180.979	8
190.926	4
210.039	5
216.123	243
217.127	30
218.127	4
248.959	3
284.110	82
285.112	10
