Mass spectrum: 6-Dimethylaminopurine; MS/MS; ESI-TOF; CE:18 eV; [M+H]+
Name: 6-Dimethylaminopurine
Name: 6,6-Dimethyladenine
Name: Dimethyladenine
Name: DMP
Name: N(6),N(6)-Dimethyladenine
Name: N,N-Dimethyl-6-aminopurine
Name: N,N-Dimethyladenine
Name: N,N-Dimethyl-Adenine
Name: N6,N6-Dimethyladenine
Name: N6,N6-Dimethyl-Adenine
Class: unknown
Formula: C7H9N5
Exact mass: 163.08579528799999
SMILES: CN(C)C2=NC=NC=1NC=NC=12
InChI: not available
Instrument: micrOTOF-Q
Instrument type: ESI-TOF
Precursor m/z: 164.094
Precursor type: [M+H]+
Base peak: 164.097
m/z	relative intensity
71.059	8
94.040	10
96.056	4
108.050	5
119.035	3
120.045	16
121.051	39
122.057	10
123.066	20
135.065	2
137.081	9
148.063	3
149.070	42
150.072	4
152.033	9
162.078	26
163.080	3
163.585	2
164.095	999
165.096	108
166.097	4
