Mass spectrum: Mesaconicacid; ; ESI-TOF; CE:10 eV; [M-H]-
Name: Mesaconicacid
Name: (E)-2-Methylbut-2-enedioic acid
Name: Mesaconate,2-methylfumarate,Mesaconic acid,methylfumaric acid,methylfumarate,
Class: unknown
Formula: C5H6O4
Exact mass: 130.026608672
SMILES: CC(=CC(O)=O)C(O)=O
InChI: not available
Instrument: micrOTOF-Q
Instrument type: ESI-TOF
Precursor m/z: 129.02
Precursor type: [M-H]-
Base peak: 129.017
m/z	relative intensity
85.028	69
86.032	3
87.042	1
129.020	999
130.022	61
131.026	13
147.030	1
259.044	17
260.048	2
