Mass spectrum: Daidzein; MS/MS; ESI-TOF; CE:37 eV; [M+H]+
Name: Daidzein
Name: 7-Hydroxy-3-(4-hydroxy-phenyl)-4H-1-benzo-pyran-4-one
Name: 4',7-Dihydroxybutisobutflavone
Name: 7-Hydroxy-3-(4-hydroxy-phenyl)-chromone
Class: unknown
Formula: C15H10O4
Exact mass: 254.0579088
SMILES: OC1=CC=C(C=C1)C2=COC=3C=C(O)C=CC=3(C2(=O))
InChI: not available
Instrument: micrOTOF-Q
Instrument type: ESI-TOF
Precursor m/z: 255.067
Precursor type: [M+H]+
Base peak: 137.026
m/z	relative intensity
81.033	77
91.054	679
92.057	48
105.035	49
115.053	48
119.050	221
121.031	79
128.062	237
129.069	155
131.053	92
133.028	69
134.036	75
137.023	999
138.027	85
143.085	102
145.031	96
149.023	70
152.062	210
153.069	431
154.074	74
155.061	43
157.065	167
169.065	59
171.080	198
181.066	705
182.070	150
184.052	111
197.058	83
198.067	90
199.076	925
200.078	134
209.065	102
227.071	324
228.075	43
237.056	170
255.067	326
256.070	58
