Mass spectrum: 1,2,4-Trihydroxybenzol; MS/MS; ESI-TOF; CE:-17 eV; [M-H]-
Name: 1,2,4-Trihydroxybenzol
Name: Hydroxyhydroquinone
Name: 1,2,4-Benzenetriol,
Name: 1,2,4-Trihydroxybenzene
Name: Hydroxyquinol
Class: unknown
Formula: C6H6O3
Exact mass: 126.03169405199999
SMILES: OC1=CC=C(O)C(O)=C1
InChI: not available
Instrument: micrOTOF-Q
Instrument type: ESI-TOF
Precursor m/z: 124.024
Precursor type: [M-H]-
Base peak: 125.021
m/z	relative intensity
69.032	98
79.017	160
81.033	30
83.012	220
95.012	216
96.018	20
97.028	600
98.032	49
107.013	86
108.021	94
123.009	365
124.016	577
125.024	999
126.027	92
