Mass spectrum: Nicotinamide-N-oxide; MS/MS; ESI-TOF; CE:10 eV; [M-H]-
Name: Nicotinamide-N-oxide
Name: 1-Oxidopyridin-1-ium-3-carboxamide
Class: unknown
Formula: C6H6N2O2
Exact mass: 138.042927432
SMILES: NC(=O)C=1C=CC=[N+]([O-])C=1
InChI: not available
Instrument: micrOTOF-Q
Instrument type: ESI-TOF
Precursor m/z: 137.035
Precursor type: [M-H]-
Base peak: 94.031
m/z	relative intensity
94.029	999
