Mass spectrum: D-Erythronolactone; ; ESI-TOF; CE:10 eV; [M+H]+
Name: D-Erythronolactone
Name: (3R,4R)-3,4-Dihydroxyoxolan-2-one
Class: unknown
Formula: C4H6O4
Exact mass: 118.026608672
SMILES: OC1COC(=O)C1(O)
InChI: not available
Instrument: micrOTOF-Q
Instrument type: ESI-TOF
Precursor m/z: 316.251
Precursor type: [M+H]+
Base peak: 119.036
m/z	relative intensity
73.027	25
83.012	10
87.043	15
89.022	5
91.038	44
101.023	39
103.038	6
104.069	26
105.056	7
112.051	11
115.039	10
119.034	999
120.037	48
121.038	10
122.072	75
123.077	4
124.070	27
133.049	190
134.051	14
137.043	121
138.046	5
141.015	73
142.017	5
173.041	111
174.038	8
177.031	6
177.522	6
178.021	52
178.522	8
179.036	52
179.537	7
180.020	14
181.035	4
205.010	18
206.026	54
206.530	7
207.040	8
