Mass spectrum: Phloridzin; MS/MS; ESI-TOF; CE:10 eV; [M-H]-
Name: Phloridzin
Name: Phlorizin,Phlorhizin,Phlorizoside,Phlorrhizin  ,Phlorizine,Floridzin,Phloridzosid,Phlorrhizen
Name: Phloretin 2'-glucoside
Class: unknown
Formula: C21H24O10
Exact mass: 436.13694696799996
SMILES: OCC3OC(OC=2C=C(O)C=C(O)C=2(C(=O)CCC1=CC=C(O)C=C1))C(O)C(O)C3(O)
InChI: not available
Instrument: micrOTOF-Q
Instrument type: ESI-TOF
Precursor m/z: 481.134
Precursor type: [M-H]-
Base peak: 273.076
m/z	relative intensity
123.047	1
125.024	17
126.027	1
149.024	4
165.054	1
167.035	70
168.039	5
179.036	8
191.034	3
269.075	2
273.077	999
274.079	144
275.082	18
276.085	2
297.076	5
315.086	4
435.127	11
436.130	3
