Mass spectrum: 3-Phenylpropionylglycine; MS/MS; ESI-TOF; CE:15 eV; [M+H]+
Name: 3-Phenylpropionylglycine
Name: (3-Phenylpropionyl)glycine ,(3-phenyl-propionylamino)-acetate ,(3-phenyl-propionylamino)-acetic acid ,N-(3-phenylpropanoyl)glycine ,N-(3-phenyl-propionyl)-glycine ,phenylpropionylglycine,,
Class: unknown
Formula: C11H13O3N
Exact mass: 207.08954327599997
SMILES: O=C(O)CNCCC(=O)C=1C=CC=CC=1
InChI: not available
Instrument: micrOTOF-Q
Instrument type: ESI-TOF
Precursor m/z: 208.098
Precursor type: [M+H]+
Base peak: 105.072
m/z	relative intensity
76.041	200
91.054	40
105.070	999
106.074	85
133.065	93
134.067	10
208.097	7
