Mass spectrum: 3-Hydroxysebacic acid; ; ESI-TOF; CE:10 eV; [M+H]+
Name: 3-Hydroxysebacic acid
Name: Hydroxy-decanedioic acid
Class: unknown
Formula: C10H18O5
Exact mass: 218.115423676
SMILES: OC(=O)CCCCCCC(O)CC(O)=O
InChI: not available
Instrument: micrOTOF-Q
Instrument type: ESI-TOF
Precursor m/z: 217.108
Precursor type: [M+H]+
Base peak: 219.124
m/z	relative intensity
219.123	999
220.126	112
221.128	16
222.131	1
