Mass spectrum: Gly-pro; MS/MS; ESI-TOF; CE:-19 eV; [M-H]-
Name: Gly-pro
Name: Glycylproline
Name: 1-Glycyl-L-Proline
Name: Glycyl-L-proline
Name: N-Glycyl-L-proline
Name: 1-(2-Aminoacetyl)pyrrolidine-2-carboxylic acid
Name: 1-Glycyl-(9CI)L-Proline
Class: unknown
Formula: C7H12N2O3
Exact mass: 172.08479224399997
SMILES: NCC(=O)N1CCCC1(C(O)=O)
InChI: not available
Instrument: micrOTOF-Q
Instrument type: ESI-TOF
Precursor m/z: 171.078
Precursor type: [M-H]-
Base peak: 114.055
m/z	relative intensity
96.044	41
99.056	15
114.056	999
115.058	57
123.056	7
127.087	21
171.076	84
172.081	7
