Mass spectrum: 2-Oxohexanoic acid; MS/MS; ESI-TOF; CE:-11 eV; [M-H]-
Name: 2-Oxohexanoic acid
Name: 2-Ketohexanoate
Name: 2-Ketocaproate
Name: 2-Ketocaproic acid
Name: 2-Ketocaproic acid sodium salt
Name: 2-Ketohexanoic acid
Name: 2-Ketohexanoic acid sodium salt
Name: 2-Keto-N-caproate sodium salt
Name: 2-Keto-N-caproic acid
Name: 2-Oxohexanoate
Name: 2-Oxo-hexanoate
Name: 2-Oxo-hexanoic acid
Name: a-Ketocaproic acid sodium salt
Name: Alpha-ketocaproate
Name: Alpha-ketocaproic acid
Class: unknown
Formula: C6H10O3
Exact mass: 130.06299417999998
SMILES: CCCCC(=O)C(O)=O
InChI: not available
Instrument: micrOTOF-Q
Instrument type: ESI-TOF
Precursor m/z: 129.055
Precursor type: [M-H]-
Base peak: 129.055
m/z	relative intensity
129.055	999
130.058	85
