Mass spectrum: 2,3-Dihydroxybenzoic acid; ; ESI-TOF; CE:10 eV; [M+H]+
Name: 2,3-Dihydroxybenzoic acid
Name: 2,3-Dihydroxybenzoate
Name: 2-Pyrocatechuate
Name: 2-Pyrocatechuic acid
Name: 3-Hydroxysalicylate
Name: 3-Hydroxysalicylic acid
Name: Catechol-3-carboxylate
Name: Catecholcarboxylate
Name: Catecholcarboxylic acid
Name: DHBA
Name: DOBK
Name: o-Pyrocatechuate
Name: o-Pyrocatechuic acid
Name: Pyrocatechuate
Name: Pyrocatechuic acid
Class: unknown
Formula: C7H6O4
Exact mass: 154.026608672
SMILES: OC(=O)C1=CC=CC(O)=C1(O)
InChI: not available
Instrument: micrOTOF-Q
Instrument type: ESI-TOF
Precursor m/z: 153.019
Precursor type: [M+H]+
Base peak: 137.021
m/z	relative intensity
81.033	12
107.013	7
109.029	17
110.030	1
111.045	6
127.039	7
136.610	2
137.024	999
138.027	73
139.028	8
144.079	1
149.024	3
153.018	10
154.024	3
154.552	1
155.034	496
156.037	36
157.039	5
175.000	75
176.004	6
177.016	29
178.017	2
193.011	47
194.015	4
195.023	3
361.976	76
362.980	15
363.980	3
364.989	2
