Mass spectrum: (DL) isocitric acid; ; ESI-TOF; CE:10 eV; [M+H]+
Name: (DL) isocitric acid
Name: 1-Hydroxytricarballylic acid
Name: Isocitrate
Name: 1-Hydroxypropane-1,2,3-tricarboxylic acid
Name: D,L-Isocitric acid
Class: unknown
Formula: C6H8O7
Exact mass: 192.027002596
SMILES: OC(=O)CC(C(O)=O)C(O)C(O)=O
InChI: not available
Instrument: micrOTOF-Q
Instrument type: ESI-TOF
Precursor m/z: 193.035
Precursor type: [M+H]+
Base peak: 193.038
m/z	relative intensity
83.012	47
85.028	15
101.023	73
104.070	20
111.007	11
113.023	8
115.039	5
129.018	213
130.023	11
139.002	9
147.029	49
149.025	10
157.013	117
158.015	9
175.024	407
176.027	26
177.029	6
181.952	4
193.035	999
194.038	65
195.041	16
215.017	975
216.020	61
217.021	14
