Mass spectrum: Glucosamine-O-sulfat; MS/MS; ESI-TOF; CE:10 eV; [M-H]-
Name: Glucosamine-O-sulfat
Class: unknown
Formula: C6H13NO8S
Exact mass: 259.036187376
SMILES: NC1C(O)OC(COS(=O)(O)=O)C(O)C1(O)
InChI: not available
Instrument: micrOTOF-Q
Instrument type: ESI-TOF
Precursor m/z: 258.027
Precursor type: [M-H]-
Base peak: 198.991
m/z	relative intensity
96.959	416
138.970	519
168.980	71
198.991	999
199.994	51
200.989	54
258.028	183
