Mass spectrum: Isethionicacid; ; ESI-TOF; CE:10 eV; [M+H]+
Name: Isethionicacid
Name: 2-Hydroxyethanesulfonate,2-hydroxyethanesulfonic acid,2-hydroxyethane-1-sulfonic acid,2-hydroxyethane-1-sulfonate,Isethionate
Class: unknown
Formula: C2H6O4S
Exact mass: 125.998679672
SMILES: OCCS(O)(=O)=O
InChI: not available
Instrument: micrOTOF-Q
Instrument type: ESI-TOF
Precursor m/z: 230.139
Precursor type: [M+H]+
Base peak: 127.009
m/z	relative intensity
108.996	158
109.999	6
110.992	8
124.040	17
127.006	999
128.009	33
129.003	47
144.082	6
145.017	707
146.019	27
147.013	35
148.988	311
149.994	10
150.985	17
163.029	18
167.000	52
170.970	139
