Mass spectrum: Strychnine; MS/MS; ESI-TOF; CE:34 eV; [M+H]+
Name: Strychnine
Class: unknown
Formula: C21H22N2O2
Exact mass: 334.168127944
SMILES: O=C2CC3OCC=C6CN4CCC57(C1=CC=CC=C1N2C7(C3C6(CC45)))
InChI: not available
Instrument: micrOTOF-Q
Instrument type: ESI-TOF
Precursor m/z: 335.174
Precursor type: [M+H]+
Base peak: 335.174
m/z	relative intensity
184.0752	91
185.0785	18
222.0921	24
262.1225	14
264.1028	43
307.1448	21
335.1741	999
336.1779	232
337.1817	29
