Mass spectrum: 3-Hydroxydecanoic acid; ; ESI-TOF; CE:10 eV; [M+H]+
Name: 3-Hydroxydecanoic acid
Class: unknown
Formula: C12H24O3
Exact mass: 216.17254462799997
SMILES: [H]OC(=O)C([H])([H])C(O[H])C([H])([H])C([H])([H])C([H])([H])C([H])([H])C([H])([H])C([H])([H])C([H])([H])C([H])([H])C([H])([H])[H]
InChI: not available
Instrument: micrOTOF-Q
Instrument type: ESI-TOF
Precursor m/z: 273.076
Precursor type: [M+H]+
Base peak: 217.18
m/z	relative intensity
217.180	999
218.183	134
219.187	14
