Mass spectrum: Isovalerylcarnitine; MS/MS; ESI-TOF; CE:10 eV; [M-H]-
Name: Isovalerylcarnitine
Name: 3-Methylbutyrylcarnitine  ,1-propanaminium, 3-carboxy-N,N,N-trimethyl-2-(3-methyl-1-oxobutoxy)-, inner salt, (R)-,
Class: unknown
Formula: C12H23NO4
Exact mass: 245.162708216
SMILES: CC(C)CC(=O)OC(CC(=O)[O-])C[N+](C)(C)C
InChI: not available
Instrument: micrOTOF-Q
Instrument type: ESI-TOF
Precursor m/z: 780.481
Precursor type: [M-H]-
Base peak: 144.104
m/z	relative intensity
101.060	669
102.063	46
144.103	999
145.105	90
147.064	81
188.092	169
200.166	153
201.170	25
244.157	29
246.170	39
290.160	52
