Mass spectrum: Pimelicacid; ; ESI-TOF; CE:10 eV; [M+H]+
Name: Pimelicacid
Name: Heptanedioic acid,6-carboxyhexanoate,Pimelate,Pimelic acid
Class: unknown
Formula: C7H12O4
Exact mass: 160.073558864
SMILES: OC(=O)CCCCCC(O)=O
InChI: not available
Instrument: micrOTOF-Q
Instrument type: ESI-TOF
Precursor m/z: 159.067
Precursor type: [M+H]+
Base peak: 161.082
m/z	relative intensity
161.081	999
162.084	79
163.085	11
