Mass spectrum: 2-Hydroxypalmitic acid; ; ESI-TOF; CE:10 eV; [M-H]-
Name: 2-Hydroxypalmitic acid
Name: Alpha-hydroxypalmitic acid
Name: 2-Hydroxyhexadecanoate
Name: 2-Hydroxyhexadecanoic acid
Name: 2-Hydroxy-hexadecanoic acid
Name: 2-Hydroxy palmitic acid
Name: DL-a-hydroxypalmitic acid
Name: DL-alpha-hydroxypalmitic acid
Class: unknown
Formula: C16H32O3
Exact mass: 272.23514488399996
SMILES: CCCCCCCCCCCCCCC(O)C(O)=O
InChI: not available
Instrument: micrOTOF-Q
Instrument type: ESI-TOF
Precursor m/z: 273.243
Precursor type: [M-H]-
Base peak: 271.227
m/z	relative intensity
84.0073	2
112.9850	27
116.9269	2
180.9754	9
225.2209	16
226.2243	3
227.2023	3
230.9861	2
248.9590	11
271.2267	999
272.2292	163
273.2322	17
339.2128	79
340.2164	13
341.2197	2
