Mass spectrum: (L) Homocysteinethiolactone; ; ESI-TOF; CE:10 eV; [M+H]+
Name: (L) Homocysteinethiolactone
Name: Homocysteine thiolactone,Homocysteine-thiolactone  ,L-Homocysteine thiolactone,DL-Homocysteine thiolactone,( -)-3-amino-2-thiolanon,3-aminodihydro-2(3H)-thiophenone,DL-3-aminotetrahydro-2-thiophenone,2(3H)-thiophenone, 3-aminodihydro-,( -)-3-aminotetrahydro-2-thiophenon,(+-)-3-aminodihydro-2(3H)-thiophenone,L-Homocysteine thiolactone hydrochloride,L-2-amino-4-mercaptobutyric acid 1,4-thiolactone hydrochloride
Class: unknown
Formula: C4H7NOS
Exact mass: 117.024834844
SMILES: NC1CCSC1(=O)
InChI: not available
Instrument: micrOTOF-Q
Instrument type: ESI-TOF
Precursor m/z: 118.032
Precursor type: [M+H]+
Base peak: 118.032
m/z	relative intensity
118.032	999
119.035	55
120.028	48
121.031	2
