Mass spectrum: N-Methyl-Nicotinamide; MS/MS; ESI-TOF; CE:19 eV; [M+H]+
Name: N-Methyl-Nicotinamide
Class: unknown
Formula: C7H8N2O
Exact mass: 136.063662876
SMILES: CNC(=O)C=1C=CC=NC=1
InChI: not available
Instrument: micrOTOF-Q
Instrument type: ESI-TOF
Precursor m/z: 137.071
Precursor type: [M+H]+
Base peak: 137.067
m/z	relative intensity
78.035	34
80.050	15
92.049	103
93.056	32
94.065	564
95.067	40
96.045	58
106.029	13
108.044	20
110.061	167
137.071	999
138.074	85
