Mass spectrum: N-Acetylarginine; MS/MS; ESI-TOF; CE:10 eV; [M-H]-
Name: N-Acetylarginine
Name: N2-Acetyl-L-arginine ,N-alpha-L-acetyl-arginine ,N-acetyl-L-arginine ,
Class: unknown
Formula: C8H16N4O3
Exact mass: 216.122240372
SMILES: CC(=O)NC(CCCN=C(N)N)C(O)=O
InChI: not available
Instrument: micrOTOF-Q
Instrument type: ESI-TOF
Precursor m/z: 215.115
Precursor type: [M-H]-
Base peak: 131.08
m/z	relative intensity
83.060	4
85.076	4
100.075	5
112.084	81
113.080	8
114.056	13
127.086	5
129.103	375
130.105	28
131.082	999
132.085	59
133.085	5
154.098	58
155.089	10
156.076	74
157.079	5
173.098	611
174.100	48
175.100	5
198.088	18
215.114	44
216.117	5
