Mass spectrum: Gly-pro; ; ESI-TOF; CE:10 eV; [M+H]+
Name: Gly-pro
Name: Glycylproline
Name: 1-Glycyl-L-Proline
Name: Glycyl-L-proline
Name: N-Glycyl-L-proline
Name: 1-(2-Aminoacetyl)pyrrolidine-2-carboxylic acid
Name: 1-Glycyl-(9CI)L-Proline
Class: unknown
Formula: C7H12N2O3
Exact mass: 172.08479224399997
SMILES: NCC(=O)N1CCCC1(C(O)=O)
InChI: not available
Instrument: micrOTOF-Q
Instrument type: ESI-TOF
Precursor m/z: 171.078
Precursor type: [M+H]+
Base peak: 173.091
m/z	relative intensity
70.064	9
116.071	333
117.074	19
118.078	2
127.086	34
128.090	3
149.024	2
155.082	9
156.072	2
172.557	2
173.094	999
174.096	100
175.098	11
