Mass spectrum: Ferulicacid; ; ESI-TOF; CE:7 eV; [M+H]+
Name: Ferulicacid
Name: Ferulate,4-hydroxy-3-methoxycinnamic acid,3-methoxy-4-hydroxy-trans-cinnamate,(2E)-3-(4-hydroxy-3-methoxyphenyl)prop-2-enoic acid ,3-(4-hydroxy-3-methoxy-phenyl)prop-2-enoic acid,trans-4-hydroxy-3-methoxycinnamic acid
Class: unknown
Formula: C10H10O4
Exact mass: 194.0579088
SMILES: COC1=CC(C=CC(O)=O)=CC=C1(O)
InChI: not available
Instrument: micrOTOF-Q
Instrument type: ESI-TOF
Precursor m/z: 177.054
Precursor type: [M+H]+
Base peak: 195.069
m/z	relative intensity
195.065	999
196.069	111
197.070	14
198.073	1
