Mass spectrum: Isoguanine; ; ESI-TOF; CE:10 eV; [M-H]-
Name: Isoguanine
Name: 6-Amino-3,7(9)-dihydro-purin-2-one
Name: 2H-Purin-2-one
Name: 2-Hydroxyadenine
Name: 2-Oxyadenineadenine
Name: 6-Amino-1,3-dihydro-
Name: 6-Amino-1,3-dihydro-2H-purin-2-one
Name: 2-Hydroxy-6-aminopurine
Name: 6-Amino-9H-purin-2-ol
Name: 2-OH-Ade
Name: 6-Amino-2-hydroxypurine
Name: 6-Amino-1,7-dihydropurin-2-one
Name: 2-Oxoadenine
Name: Guanopterin
Class: unknown
Formula: C5H5N5O
Exact mass: 151.04940978000002
SMILES: NC=1NC(=O)N=C2N=CNC=12
InChI: not available
Instrument: micrOTOF-Q
Instrument type: ESI-TOF
Precursor m/z: 152.057
Precursor type: [M-H]-
Base peak: 150.045
m/z	relative intensity
107.035	54
112.987	19
122.023	19
130.993	26
141.066	21
146.940	37
150.042	999
151.044	67
180.974	24
301.090	37
