Mass spectrum: Chlormequat; ; ESI-TOF; CE:10 eV; [M+H]+
Name: Chlormequat
Name: Cycogan
Name: Antywylegacz
Name: Ce ce ce
Name: Cyclocel
Name: Cyocel
Name: Chlorcholinchlorid
Name: Retacel
Name: Stabilan
Name: Cycogan extra
Class: unknown
Formula: C5H13ClN
Exact mass: 122.07365209599999
SMILES: C[N+](C)(C)CCCl
InChI: not available
Instrument: micrOTOF-Q
Instrument type: ESI-TOF
Precursor m/z: 103.123
Precursor type: [M+H]+
Base peak: 122.074
m/z	relative intensity
122.073	999
123.076	59
124.070	321
125.073	19
