Mass spectrum: L-Alpha-hydroxy isovalericacid; ; ESI-TOF; CE:10 eV; [M+H]+
Name: L-Alpha-hydroxy isovalericacid
Name: (2S)-2-Hydroxy-3-methylbutanoic acid
Class: unknown
Formula: C5H10O3
Exact mass: 118.06299417999999
SMILES: CC(C)C(O)C(O)=O
InChI: not available
Instrument: micrOTOF-Q
Instrument type: ESI-TOF
Precursor m/z: 118.032
Precursor type: [M+H]+
Base peak: 119.069
m/z	relative intensity
73.067	553
74.070	28
91.075	103
92.079	7
101.043	14
106.028	6
115.035	34
119.070	999
120.073	55
137.080	198
138.082	11
141.052	54
144.081	22
147.043	11
149.024	12
155.038	8
156.056	157
156.557	18
161.046	48
162.089	17
163.007	32
165.056	8
171.031	14
173.117	8
181.021	12
189.041	81
190.042	8
191.028	9
191.128	22
197.077	126
197.579	22
201.054	8
206.072	12
207.049	8
209.010	10
217.053	26
224.129	13
226.984	7
235.074	7
237.008	6
237.136	19
245.047	13
246.055	18
253.105	24
261.087	14
262.057	7
263.061	85
264.063	12
265.064	9
279.105	54
280.102	7
281.099	22
289.060	12
290.048	16
291.056	210
292.059	29
293.057	36
295.052	15
308.060	84
309.064	25
