Mass spectrum: 5-Methyltetrahydrofolic acid; MS/MS; ESI-TOF; CE:-29 eV; [M-H]-
Name: 5-Methyltetrahydrofolic acid
Name: 5-Methyl-5,6,7,8-tetrahydropteroyl-L-glutamic acid Disodium salt
Name: 5-Methyltetrahydrofolate
Class: unknown
Formula: C20H25N7O6
Exact mass: 459.18663152
SMILES: CN3C(CNC=1C=CC(=CC=1)C(=O)NC(CCC(O)=O)C(O)=O)CNC=2N=C(N)NC(=O)C=23
InChI: not available
Instrument: micrOTOF-Q
Instrument type: ESI-TOF
Precursor m/z: 458.179
Precursor type: [M-H]-
Base peak: 458.18
m/z	relative intensity
128.035	352
129.035	17
146.045	42
148.039	24
233.093	47
242.141	18
277.082	271
278.085	42
285.147	21
286.134	32
329.136	880
330.138	142
331.143	20
370.197	18
371.182	192
372.185	42
396.178	57
414.189	327
415.190	78
440.168	65
458.179	999
459.180	206
460.182	39
