Mass spectrum: 2-Hydroxypalmitic acid; ; ESI-TOF; CE:10 eV; [M+H]+
Name: 2-Hydroxypalmitic acid
Name: Alpha-hydroxypalmitic acid
Name: 2-Hydroxyhexadecanoate
Name: 2-Hydroxyhexadecanoic acid
Name: 2-Hydroxy-hexadecanoic acid
Name: 2-Hydroxy palmitic acid
Name: DL-a-hydroxypalmitic acid
Name: DL-alpha-hydroxypalmitic acid
Class: unknown
Formula: C16H32O3
Exact mass: 272.23514488399996
SMILES: CCCCCCCCCCCCCCC(O)C(O)=O
InChI: not available
Instrument: micrOTOF-Q
Instrument type: ESI-TOF
Precursor m/z: 273.243
Precursor type: [M+H]+
Base peak: 295.221
m/z	relative intensity
69.0690	3
71.0844	3
81.0687	2
83.0848	25
84.0887	2
85.1007	5
95.0845	1
97.1008	48
98.1043	3
99.1156	2
107.0720	1
111.1168	37
112.1197	3
113.1318	3
122.0963	9
123.1019	1
125.1321	26
126.1352	2
127.1466	3
139.1476	13
140.1511	1
149.0233	2
153.1618	7
167.1763	2
187.1259	2
209.2262	4
215.1180	2
219.2092	4
226.5149	1
227.2365	494
228.2395	75
229.2412	6
237.2202	9
238.2226	1
245.2467	59
246.2501	8
255.2316	5
272.3604	2
273.2424	589
274.2449	104
275.2481	11
290.2726	4
291.2531	297
292.0904	1
292.2563	50
293.2568	6
294.2662	3
295.2258	999
296.2279	178
297.2311	18
298.2312	1
