Mass spectrum: L-Allo-threonine; MS/MS; ESI-TOF; CE:10 eV; [M-H]-
Name: L-Allo-threonine
Name: L-Allothreonine,(2S,3S)-2-amino-3-hydroxybutanoate ,(2S,3S)-2-amino-3-hydroxybutanoic acid,Allo-L-threonine
Class: unknown
Formula: C4H9NO3
Exact mass: 119.05824314799999
SMILES: CC(O)C(N)C(O)=O
InChI: not available
Instrument: micrOTOF-Q
Instrument type: ESI-TOF
Precursor m/z: 118.05
Precursor type: [M-H]-
Base peak: 118.05
m/z	relative intensity
72.008	91
74.024	339
118.050	999
119.054	66
