Mass spectrum: 1,6-Anhydro-b-D-glucose; ; ESI-TOF; CE:10 eV; [M-H]-
Name: 1,6-Anhydro-b-D-glucose
Name: Glucosan
Name: 1,6-Anhydro-b-D-glucopyranose
Name: 1,6-Anhydro-beta-D-Glucopyranose
Name: 1,6-Anhydro-beta-D-glucose
Name: 1,6-Anhydro-beta-glucopyranose
Name: 1,6-Anhydro-D-glucose
Name: 1,6-Anhydroglucose
Name: 6,8-Dioxabicyclo[3.2.1]octane b-D-glucopyranose deriv.
Name: Anhydro-D-mannosan
Name: Leucoglucosan
Name: Levoglucosan
Class: unknown
Formula: C6H10O5
Exact mass: 162.05282341999998
SMILES: OC2C(O)C1COC(O1)C2(O)
InChI: not available
Instrument: micrOTOF-Q
Instrument type: ESI-TOF
Precursor m/z: 137.072
Precursor type: [M-H]-
Base peak: 161.046
m/z	relative intensity
161.046	999
162.049	68
163.050	12
