Mass spectrum: p-Coumaric acid; ; ESI-TOF; CE:10 eV; [M+H]+
Name: p-Coumaric acid
Name: Para-Coumaric acid
Name: Para-Coumarate
Name: 4-Hydroxycinnamic acid
Name: p-Coumarate
Name: Para-hydroxycinnamic acid
Name: 4-Coumarate
Name: 4-Hydroxycinnamate
Name: Trans-4-hydroxycinnamate
Name: (E)-3-(4-Hydroxyphenyl)prop-2-enoic acid
Name: Trans-4-hydroxycinnamic acid
Class: unknown
Formula: C9H8O3
Exact mass: 164.04734411599998
SMILES: OC(=O)C=CC1=CC=C(O)C=C1
InChI: not available
Instrument: micrOTOF-Q
Instrument type: ESI-TOF
Precursor m/z: 131.034
Precursor type: [M+H]+
Base peak: 147.043
m/z	relative intensity
80.049	2
91.054	13
119.050	72
120.053	7
121.063	4
122.094	2
123.044	3
146.596	2
147.045	999
148.047	98
149.046	8
164.046	1
165.055	374
166.058	37
167.060	4
187.036	65
188.038	6
