Mass spectrum: D-Hexanolactone; MS/MS; ESI-TOF; CE:-17 eV; [M-H]-
Name: D-Hexanolactone
Name: (RS)-D-hexalactone
Name: 5-Hexanolide
Name: 5-Hydroxy-hexanoic acid D-lactone
Name: 5-Hydroxyhexanoic acid lactone
Name: 6-Methyl-D-valerolactone
Name: 6-Methyloxan-2-one
Name: 6-Methylvalerolactone
Name: D-Caprolactone
Name: D-Hexalactone
Name: D-Hexanolide
Name: Hexanolactone
Name: D-Methyl-D-valerolactone
Name: Tetrahydro-6-methyl-2H-pyran-2-one
Class: unknown
Formula: C6H10O2
Exact mass: 114.06807956
SMILES: CC1CCCC(=O)O1
InChI: not available
Instrument: micrOTOF-Q
Instrument type: ESI-TOF
Precursor m/z: 131.072
Precursor type: [M-H]-
Base peak: 85.0666
m/z	relative intensity
71.048	149
85.064	999
86.068	57
87.077	34
113.060	64
129.056	62
131.071	354
132.075	33
