Mass spectrum: Tryptophane; ; ESI-TOF; CE:10 eV; [M+H]+
Name: Tryptophane
Class: unknown
Formula: C11H12N2O2
Exact mass: 204.089877624
SMILES: NC(CC1=CNC2=CC=CC=C12)C(O)=O
InChI: not available
Instrument: micrOTOF-Q
Instrument type: ESI-TOF
Precursor m/z: 203.082
Precursor type: [M+H]+
Base peak: 188.071
m/z	relative intensity
118.064	3
130.063	5
132.080	9
143.073	2
144.079	17
146.060	50
147.063	4
159.092	21
160.087	3
170.059	7
187.540	5
188.071	999
189.073	120
190.076	10
204.517	2
205.097	407
206.100	50
207.103	4
