Mass spectrum: Isobutyrylcarnitine; ; ESI-TOF; CE:10 eV; [M-H]-
Name: Isobutyrylcarnitine
Name: Isobutyryl-1-carnitine,isobutyryl-carnitine,isobutyryl-L-carnitine,iso-butyryl-L(-)-carnitin,,
Class: unknown
Formula: C11H21NO4
Exact mass: 231.147058152
SMILES: CC(C)C(=O)OC(CC(=O)[O-])C[N+](C)(C)C
InChI: not available
Instrument: micrOTOF-Q
Instrument type: ESI-TOF
Precursor m/z: 230.139
Precursor type: [M-H]-
Base peak: 276.144
m/z	relative intensity
87.0440	85
88.0480	3
88.9878	9
112.9854	4
133.0493	27
140.9846	4
144.1023	330
145.1048	25
186.1490	55
187.1532	7
188.0918	149
189.0952	14
190.9278	9
230.1386	28
231.1423	3
232.1532	23
233.1571	3
235.9231	3
266.1159	7
276.1440	999
277.1470	129
278.1490	18
318.1900	73
319.1913	12
320.1533	3
