Mass spectrum: 3-(2-Hydroxyphenyl)propionic acid; MS/MS; ESI-TOF; CE:-18 eV; [M-H]-
Name: 3-(2-Hydroxyphenyl)propionic acid
Name: 2-Hydroxyhydrocinnamic acid
Name: 2-Hydroxyphenylpropanoate
Name: 2-Hydroxyphenylpropionic acid
Name: 3-(2-Hydroxyphenyl)propanoate
Name: 3-(2-Hydroxyphenyl)propionate
Name: Melilotate
Name: Melilotic acid
Class: unknown
Formula: C9H10O3
Exact mass: 166.06299417999998
SMILES: OC(=O)CCC=1C=CC=CC=1(O)
InChI: not available
Instrument: micrOTOF-Q
Instrument type: ESI-TOF
Precursor m/z: 147.045
Precursor type: [M-H]-
Base peak: 119.052
m/z	relative intensity
117.033	38
119.049	999
120.052	84
145.029	49
147.045	245
