Mass spectrum: Desthiobiotin; MS/MS; ESI-TOF; CE:-20 eV; [M-H]-
Name: Desthiobiotin
Name: 5-Methyl-2-oxo-4-imidazolidinehexanoic acid
Name: D-Desthiobiotin
Name: Dethiobiotin
Class: unknown
Formula: C10H18N2O3
Exact mass: 214.13174243599997
SMILES: CC1NC(=O)NC1(CCCCCC(O)=O)
InChI: not available
Instrument: micrOTOF-Q
Instrument type: ESI-TOF
Precursor m/z: 213.125
Precursor type: [M-H]-
Base peak: 213.124
m/z	relative intensity
96.081	80
126.092	31
128.107	32
152.108	21
167.117	17
169.134	274
170.119	886
171.121	83
195.114	15
213.123	999
214.127	102
