Mass spectrum: 3-Methylcatechol; ; ESI-TOF; CE:10 eV; [M+H]+
Name: 3-Methylcatechol
Name: 2,3-Dihydroxytoluene
Class: unknown
Formula: C7H8O2
Exact mass: 124.052429496
SMILES: CC1=CC=CC(O)=C1(O)
InChI: not available
Instrument: micrOTOF-Q
Instrument type: ESI-TOF
Precursor m/z: 123.044
Precursor type: [M+H]+
Base peak: 125.058
m/z	relative intensity
125.060	999
126.063	77
127.065	7
