Mass spectrum: Isovalerylcarnitine; ; ESI-TOF; CE:10 eV; [M-H]-
Name: Isovalerylcarnitine
Name: 3-Methylbutyrylcarnitine  ,1-propanaminium, 3-carboxy-N,N,N-trimethyl-2-(3-methyl-1-oxobutoxy)-, inner salt, (R)-,
Class: unknown
Formula: C12H23NO4
Exact mass: 245.162708216
SMILES: CC(C)CC(=O)OC(CC(=O)[O-])C[N+](C)(C)C
InChI: not available
Instrument: micrOTOF-Q
Instrument type: ESI-TOF
Precursor m/z: 780.481
Precursor type: [M-H]-
Base peak: 244.16
m/z	relative intensity
244.155	999
245.159	137
246.160	17
247.163	1
