Mass spectrum: D-Tagatose; ; ESI-TOF; CE:10 eV; [M+H]+
Name: D-Tagatose
Name: (3S,4S,5R)-1,3,4,5,6-Pentahydroxyhexan-2-one
Name: D-Tag
Name: DL-Tagatose
Name: Tagatose
Name: Lyxo-hexulose
Class: unknown
Formula: C6H12O6
Exact mass: 180.06338810399998
SMILES: OCC1(O)(OCC(O)C(O)C1(O))
InChI: not available
Instrument: micrOTOF-Q
Instrument type: ESI-TOF
Precursor m/z: 179.055
Precursor type: [M+H]+
Base peak: 180.093
m/z	relative intensity
181.071	999
182.074	69
183.075	14
