Mass spectrum: N-Acetyl-L-glutamine; ; ESI-TOF; CE:10 eV; [M+H]+
Name: N-Acetyl-L-glutamine
Name: (2S)-2-Acetamido-5-amino-5-oxopentanoic acid
Class: unknown
Formula: C7H12N2O4
Exact mass: 188.079706864
SMILES: CC(=O)NC(CCC(N)=O)C(O)=O
InChI: not available
Instrument: micrOTOF-Q
Instrument type: ESI-TOF
Precursor m/z: 187.073
Precursor type: [M+H]+
Base peak: 189.085
m/z	relative intensity
83.062	2
84.045	49
85.047	3
101.070	9
102.056	5
126.053	3
129.064	40
130.049	453
131.052	26
132.054	4
143.080	42
144.067	14
147.075	40
148.065	6
149.022	7
159.967	2
171.076	74
172.060	431
173.063	34
174.065	6
181.951	4
188.492	2
189.087	999
190.089	79
191.091	10
211.069	28
212.072	3
