Mass spectrum: (DL) ethionine; ; ESI-TOF; CE:10 eV; [M+H]+
Name: (DL) ethionine
Name: (2S)-2-Amino-4-ethylsulfanyl-butanoic acid
Name: 2-Amino-4-(ethylthio)butyric acid
Name: 2-Amino-4-ethylsulfanyl-butanoic acid
Name: D,L-Ethionine
Class: unknown
Formula: C6H13NO2S
Exact mass: 163.066699656
SMILES: CCSCCC(N)C(=O)O
InChI: not available
Instrument: micrOTOF-Q
Instrument type: ESI-TOF
Precursor m/z: 162.059
Precursor type: [M+H]+
Base peak: 164.077
m/z	relative intensity
73.010	11
74.058	4
75.025	31
76.029	2
77.020	1
84.044	2
85.028	5
89.040	2
91.021	1
101.042	29
102.055	88
103.055	5
117.718	1
118.069	432
119.069	29
120.064	22
121.065	1
146.595	2
147.048	782
148.050	58
149.044	39
150.046	3
163.567	2
164.075	999
165.077	80
166.071	58
167.072	4
186.055	21
187.058	1
188.054	1
