Mass spectrum: 5-Aminopentanoic acid; MS/MS; ESI-TOF; CE:-7 eV; [M-H]-
Name: 5-Aminopentanoic acid
Name: 5-Aminopentanoate
Name: 5-Aminopentanoic acid
Name: 5-Aminovaleric acid
Name: Delta-amino-N-valerate
Name: Delta-amino-N-valeric acid
Name: Delta-aminovalerate
Name: 5-Aminovalerate
Name: Delta-aminovaleric acid
Class: unknown
Formula: C5H11NO2
Exact mass: 117.078978592
SMILES: NCCCCC(O)=O
InChI: not available
Instrument: micrOTOF-Q
Instrument type: ESI-TOF
Precursor m/z: 116.072
Precursor type: [M-H]-
Base peak: 116.07
m/z	relative intensity
116.071	999
117.074	68
