Mass spectrum: Glycochenodeoxycholic acid; ; ESI-TOF; CE:10 eV; [M+H]+
Name: Glycochenodeoxycholic acid
Name: Chenodeoxycholylglycine
Name: Glycine chenodeoxycholate
Name: Glycochenodeoxycholate
Name: N-(3Alpha,7alpha-dihydroxy-5beta-cholan-24-oyl)glycine
Name: [(3Alpha,7alpha-dihydroxy-24-oxo-5beta-cholan-24-yl)amino]acetic acid
Class: unknown
Formula: C26H43NO5
Exact mass: 449.314123476
SMILES: [H]C13(CC(O)CCC1(C)C4([H])(CCC2(C)(C([H])(CCC2([H])C4([H])(C(O)C3))C(C)CCC(=O)NCC(O)=O)))
InChI: not available
Instrument: micrOTOF-Q
Instrument type: ESI-TOF
Precursor m/z: 448.307
Precursor type: [M+H]+
Base peak: 450.319
m/z	relative intensity
207.655	5
252.626	7
253.126	3
253.633	5
261.632	4
262.640	4
333.169	3
339.268	5
354.313	3
414.299	368
415.303	102
416.308	14
432.311	842
433.314	230
434.316	37
435.318	5
448.828	3
450.322	999
451.325	275
452.327	45
453.328	6
472.304	136
473.306	35
474.308	6
