Mass spectrum: 3-(2-Hydroxyphenyl)propionic acid; ; ESI-TOF; CE:10 eV; [M+H]+
Name: 3-(2-Hydroxyphenyl)propionic acid
Name: 2-Hydroxyhydrocinnamic acid
Name: 2-Hydroxyphenylpropanoate
Name: 2-Hydroxyphenylpropionic acid
Name: 3-(2-Hydroxyphenyl)propanoate
Name: 3-(2-Hydroxyphenyl)propionate
Name: Melilotate
Name: Melilotic acid
Class: unknown
Formula: C9H10O3
Exact mass: 166.06299417999998
SMILES: OC(=O)CCC=1C=CC=CC=1(O)
InChI: not available
Instrument: micrOTOF-Q
Instrument type: ESI-TOF
Precursor m/z: 121.065
Precursor type: [M+H]+
Base peak: 167.073
m/z	relative intensity
167.070	999
168.074	100
169.076	11
