Mass spectrum: Desthiobiotin; MS/MS; ESI-TOF; CE:21 eV; [M+H]+
Name: Desthiobiotin
Name: 5-Methyl-2-oxo-4-imidazolidinehexanoic acid
Name: D-Desthiobiotin
Name: Dethiobiotin
Class: unknown
Formula: C10H18N2O3
Exact mass: 214.131742436
SMILES: CC1NC(=O)NC1(CCCCCC(O)=O)
InChI: not available
Instrument: micrOTOF-Q
Instrument type: ESI-TOF
Precursor m/z: 215.14
Precursor type: [M+H]+
Base peak: 197.127
m/z	relative intensity
67.053	9
69.069	15
70.065	11
79.053	8
81.068	16
84.077	7
91.054	7
93.070	22
94.067	6
95.085	92
96.046	21
99.055	56
100.071	7
107.084	5
108.080	6
109.101	117
110.099	25
111.056	31
111.113	16
112.081	8
119.085	20
124.110	5
125.074	6
126.127	29
134.096	10
136.112	78
137.095	48
138.096	7
151.119	16
152.108	17
153.104	13
154.123	110
155.125	14
169.134	20
172.134	5
179.118	387
180.119	42
197.129	999
198.132	111
199.134	10
215.140	9
