Mass spectrum: N-Acetylalanine; ; ESI-TOF; CE:10 eV; [M-H]-
Name: N-Acetylalanine
Name: N-Acetyl-,Alanine
Name: 2-Acetamidopropionic acid
Name: Acetylalanine
Name: Acetylalanine,N-acetyl-S-alanine,2-acetamidopropionic acid,L-Alanine, N-acetyl-,Alanine, N-acetyl-, L-
Name: L-Alanine
Name: N-Acetyl-S-alanine
Class: unknown
Formula: C5H9NO3
Exact mass: 131.05824314799997
SMILES: CC(=O)NC(C)C(O)=O
InChI: not available
Instrument: micrOTOF-Q
Instrument type: ESI-TOF
Precursor m/z: 132.066
Precursor type: [M-H]-
Base peak: 130.052
m/z	relative intensity
130.051	999
131.054	59
132.055	8
