Mass spectrum: 6-Methyladenine; MS/MS; ESI-TOF; CE:10 eV; [M-H]-
Name: 6-Methyladenine
Name: N6-Methyladenine
Name: (N-6)-Methyladenine
Name: 6-MAP
Name: 6-Methylaminopurine
Name: 6-Monomethylaminopurine
Name: N6-Monomethyladenine
Name: Methyl(purin-6-yl)amine
Name: N-Methyl-adenine
Name: N-Methyl-1H-Purin-6-amine
Class: unknown
Formula: C6H7N5
Exact mass: 149.07014522400002
SMILES: CNC1=NC=NC=2NC=NC1=2
InChI: not available
Instrument: micrOTOF-Q
Instrument type: ESI-TOF
Precursor m/z: 148.119
Precursor type: [M-H]-
Base peak: 133.037
m/z	relative intensity
92.024	36
106.029	27
117.021	11
132.032	82
133.040	999
134.041	66
146.047	45
147.049	4
148.063	679
149.065	52
