Mass spectrum: (L) Tyrosyl-L-leucine; ; ESI-TOF; CE:10 eV; [M+H]+
Name: (L) Tyrosyl-L-leucine
Name: (2S)-2-[[(2S)-2-Amino-3-(4-hydroxyphenyl)propanoyl]amino]-4-methylpentanoic acid
Name: Tyr-Leu
Class: unknown
Formula: C15H22N2O4
Exact mass: 294.157957184
SMILES: CC(C)CC(NC(=O)C(N)CC=1C=CC(O)=CC=1)C(=O)O
InChI: not available
Instrument: micrOTOF-Q
Instrument type: ESI-TOF
Precursor m/z: 293.15
Precursor type: [M+H]+
Base peak: 295.159
m/z	relative intensity
132.102	2
136.075	81
137.078	7
181.952	3
201.055	7
249.159	6
277.152	3
278.138	15
279.145	3
295.165	999
296.167	179
297.169	20
589.317	26
590.321	9
