Mass spectrum: 3-Methylglutaric acid; MS/MS; ESI-TOF; CE:9 eV; [M+H]+
Name: 3-Methylglutaric acid
Class: unknown
Formula: C6H10O4
Exact mass: 146.0579088
SMILES: CC(CC(O)=O)CC(O)=O
InChI: not available
Instrument: micrOTOF-Q
Instrument type: ESI-TOF
Precursor m/z: 147.065
Precursor type: [M+H]+
Base peak: 129.054
m/z	relative intensity
101.060	910
129.054	999
147.065	137
149.023	149
