Mass spectrum: N-Methyltryptamine; MS/MS; ESI-TOF; CE:13 eV; [M+H]+
Name: N-Methyltryptamine
Name: 3-(2-(Methylamino)ethyl)indole,3-(2-methylaminoethyl)indole,3-(2-[methylamino]ethyl)indole ,Dipterine ,methyltryptamine  ,N-monomethyltryptamine ,N-omega-methyltryptamine ,dl-methyltryptamine
Class: unknown
Formula: C11H14N2
Exact mass: 174.115698448
SMILES: CN2C=C(CCN)C1=CC=CC=C12
InChI: not available
Instrument: micrOTOF-Q
Instrument type: ESI-TOF
Precursor m/z: 175.123
Precursor type: [M+H]+
Base peak: 144.08
m/z	relative intensity
117.067	3
118.065	6
132.080	211
133.083	22
143.071	2
143.641	2
144.081	999
145.083	117
146.086	5
175.122	15
176.125	2
