Mass spectrum: Isobutyrylglycine; ; ESI-TOF; CE:10 eV; [M+H]+
Name: Isobutyrylglycine
Name: 2-(Butan-2-ylamino)acetic acid
Name: Isobutyroylglycine
Class: unknown
Formula: C6H11NO3
Exact mass: 145.073893212
SMILES: CC(C)C(=O)NCC(O)=O
InChI: not available
Instrument: micrOTOF-Q
Instrument type: ESI-TOF
Precursor m/z: 144.066
Precursor type: [M+H]+
Base peak: 146.082
m/z	relative intensity
146.081	999
147.085	71
148.085	8
