Mass spectrum: Deoxycytidine; MS/MS; ESI-TOF; CE:17 eV; [M+H]+
Name: Deoxycytidine
Name: 2'-Deoxycytidine
Name: 2'-Deoxy-cytidine
Name: 2-Deoxycytidine
Name: Cytosine deoxyribonucleoside
Name: Cytosine deoxyriboside
Name: DC
Name: DCYD
Name: Deoxyribose cytidine
Name: D-Cytidine
Name: Desoxycytidine
Class: unknown
Formula: C9H13N3O4
Exact mass: 227.090605896
SMILES: NC=1C=CN(C(=O)N=1)C2CC(O)C(CO)O2
InChI: not available
Instrument: micrOTOF-Q
Instrument type: ESI-TOF
Precursor m/z: 112.051
Precursor type: [M+H]+
Base peak: 112.048
m/z	relative intensity
67.028	15
68.012	11
69.043	66
94.040	117
95.024	698
96.027	42
112.051	999
113.046	69
