Mass spectrum: 3,4-Dihydroxybenzoic acid; ; ESI-TOF; CE:10 eV; [M-H]-
Name: 3,4-Dihydroxybenzoic acid
Name: 3,4-Dihydroxybenzoate
Name: 4,5-Dihydroxybenzoic acid
Name: 4-Carboxy-1,2-dihydroxybenzene
Name: Beta-Resorcylate
Name: Beta-Resorcylic acid
Name: b-Resorcylate
Name: b-Resorcylic acid
Name: Protocatechuic acid
Name: Protocatechuate
Name: Protocatehuic acid
Class: unknown
Formula: C7H6O4
Exact mass: 154.026608672
SMILES: OC(=O)C=1C=CC(O)=C(O)C=1
InChI: not available
Instrument: micrOTOF-Q
Instrument type: ESI-TOF
Precursor m/z: 153.021
Precursor type: [M-H]-
Base peak: 153.019
m/z	relative intensity
88.986	2
108.021	10
109.029	335
110.032	21
123.044	2
135.045	3
146.941	3
153.021	999
154.022	93
155.023	12
