Mass spectrum: 5-Methylcytidine; ; ESI-TOF; CE:10 eV; [M-H]-
Name: 5-Methylcytidine
Name: 5-Methyl-cytidine
Class: unknown
Formula: C10H15N3O5
Exact mass: 257.10117058000003
SMILES: CC1=CN(C(=O)N=C1(N))C2OC(CO)C(O)C2(O)
InChI: not available
Instrument: micrOTOF-Q
Instrument type: ESI-TOF
Precursor m/z: 258.11
Precursor type: [M-H]-
Base peak: 256.094
m/z	relative intensity
89.0220	15
112.9846	3
119.0354	12
123.0555	17
124.0514	20
166.0611	16
256.0937	999
257.0958	105
258.0981	13
259.1000	1
302.0983	444
303.1012	57
304.1033	8
