Mass spectrum: Dimethylsuccinic acid; ; ESI-TOF; CE:10 eV; [M+H]+
Name: Dimethylsuccinic acid
Name: Dimethylsuccinic acid
Class: unknown
Formula: C6H10O4
Exact mass: 146.0579088
SMILES: CC(C)(CC(O)=O)C(O)=O
InChI: not available
Instrument: micrOTOF-Q
Instrument type: ESI-TOF
Precursor m/z: 145.051
Precursor type: [M+H]+
Base peak: 147.068
m/z	relative intensity
147.065	999
148.069	68
149.069	10
