Mass spectrum: 2-Deoxyguanosine; MS/MS; ESI-TOF; CE:-23 eV; [M-H]-
Name: 2-Deoxyguanosine
Name: Guanine deoxy nucleoside
Name: Desoxyguanosine
Name: Guanine deoxyriboside
Name: 2-Amino-9-(2-deoxy-9-beta-D-ribofuranosyl)-9H-purin-6-ol,dG,9-(2-Deoxy-b-D-erythro-pentofuranosyl)guanine
Name: 2-Amino-9-[(2R,4R,5S)-4-hydroxy-5-(hydroxymethyl)oxolan-2-yl]-3H-purin-6-one
Name: 2-Amino-9-[4-hydroxy-5-(hydroxymethyl)oxolan-2-yl]-3H-purin-6-one
Name: 9-(2-Deoxy-b-D-erythro-pentofuranosyl)-guanine
Name: 9-(2-Deoxy-beta-D-ribofuranosyl)guanine
Name: Deoxyguanosine
Name: 2'-Deoxyguanosine
Name: 2'-Deoxy-guanosine
Name: 2'-Deoxyguanosine monohydrate
Name: Guanine-2'-deoxyriboside
Class: unknown
Formula: C10H13N5O4
Exact mass: 267.096753896
SMILES: NC=2NC(=O)C=3N=CN(C1CC(O)C(CO)O1)C=3(N=2)
InChI: not available
Instrument: micrOTOF-Q
Instrument type: ESI-TOF
Precursor m/z: 266.088
Precursor type: [M-H]-
Base peak: 150.043
m/z	relative intensity
107.036	17
108.020	18
126.031	26
133.015	93
134.029	10
149.034	12
150.042	999
151.042	63
176.057	111
177.059	11
266.088	70
267.090	10
