Mass spectrum: Maleimide; MS/MS; ESI-TOF; CE:10 eV; [M-H]-
Name: Maleimide
Name: 2,5-Pyrroledione
Class: unknown
Formula: C4H3NO2
Exact mass: 97.016378336
SMILES: O=C1C=CC(=O)N1
InChI: not available
Instrument: micrOTOF-Q
Instrument type: ESI-TOF
Precursor m/z: 96.008
Precursor type: [M-H]-
Base peak: 96.0093
m/z	relative intensity
96.008	999
97.012	67
