Mass spectrum: 3-Methylindole; ; ESI-TOF; CE:10 eV; [M+H]+
Name: 3-Methylindole
Name: Skatole
Class: unknown
Formula: C9H9N
Exact mass: 131.073499288
SMILES: CC1=CNC=2C=CC=CC1=2
InChI: not available
Instrument: micrOTOF-Q
Instrument type: ESI-TOF
Precursor m/z: 147.065
Precursor type: [M+H]+
Base peak: 132.082
m/z	relative intensity
132.081	999
133.084	102
134.087	5
