Mass spectrum: D-Tagatose; ; ESI-TOF; CE:10 eV; [M-H]-
Name: D-Tagatose
Name: (3S,4S,5R)-1,3,4,5,6-Pentahydroxyhexan-2-one
Name: D-Tag
Name: DL-Tagatose
Name: Tagatose
Name: Lyxo-hexulose
Class: unknown
Formula: C6H12O6
Exact mass: 180.06338810399998
SMILES: OCC1(O)(OCC(O)C(O)C1(O))
InChI: not available
Instrument: micrOTOF-Q
Instrument type: ESI-TOF
Precursor m/z: 141.068
Precursor type: [M-H]-
Base peak: 179.058
m/z	relative intensity
71.012	19
72.992	4
75.008	12
85.029	11
87.007	11
89.023	210
90.027	7
101.023	30
103.003	200
104.011	7
113.023	62
119.034	39
121.015	48
131.035	14
135.030	5
143.035	27
146.944	10
149.046	32
161.045	94
162.048	8
174.955	8
179.055	999
180.059	63
181.059	14
