Mass spectrum: Hesperidin; ; ESI-TOF; CE:10 eV; [M+H]+
Name: Hesperidin
Name: Hesperetin 7-O-rutinoside
Name: Ciratin
Name: Hesperetin 7-rhamnoglucoside
Name: D: 3594
Name: Hesperitin-7-rutinoside
Class: unknown
Formula: C28H34O15
Exact mass: 610.189770388
SMILES: COC1=CC=C(C=C1(O))C2CC(=O)C=3C(O)=CC(=CC=3(O2))OC5OC(COC4OC(C)C(O)C(O)C4(O))C(O)C(O)C5(O)
InChI: not available
Instrument: micrOTOF-Q
Instrument type: ESI-TOF
Precursor m/z: 487.098
Precursor type: [M+H]+
Base peak: 611.198
m/z	relative intensity
129.055	2
147.065	6
303.086	111
304.089	18
305.091	3
309.114	2
345.096	7
413.123	3
431.133	17
432.136	4
435.131	3
447.127	4
449.143	199
450.147	47
451.149	8
465.138	69
466.139	17
467.140	3
491.149	3
507.145	3
575.173	3
593.183	7
594.190	2
595.195	5
597.196	2
609.169	5
610.181	3
610.352	3
611.196	999
612.198	288
613.200	64
614.203	11
633.179	28
634.181	8
757.253	43
758.256	16
759.252	4
