Mass spectrum: Ribitol; ; ESI-TOF; CE:10 eV; [M-H]-
Name: Ribitol
Name: Adonitol,meso-ribitol,
Class: unknown
Formula: C5H12O5
Exact mass: 152.06847348399998
SMILES: OCC(O)C(O)C(O)CO
InChI: not available
Instrument: micrOTOF-Q
Instrument type: ESI-TOF
Precursor m/z: 166.086
Precursor type: [M-H]-
Base peak: 151.062
m/z	relative intensity
71.013	7
75.007	4
83.012	2
85.028	3
87.008	2
89.023	46
90.026	2
101.023	48
102.029	3
103.037	2
113.022	4
119.034	25
120.037	1
129.021	1
131.033	6
133.049	9
135.042	2
146.957	1
149.044	10
151.061	999
152.064	56
153.065	10
