Mass spectrum: 2-Hydroxysebacic acid; ; ESI-TOF; CE:10 eV; [M-H]-
Name: 2-Hydroxysebacic acid
Name: 2-Hydroxy-decandioate
Name: 2-Hydroxy-decandioic acid
Name: 2-Hydroxydecanedioate
Name: 2-Hydroxy-decanedioic acid
Name: 2-Hydroxysebacate
Name: a-Hydroxysebasate
Name: a-Hydroxysebasic acid
Name: Alpha-hydroxysebasate
Name: Alpha-hydroxysebasic acid
Class: unknown
Formula: C10H18O5
Exact mass: 218.11542367599998
SMILES: O=C(O)CCCCCCCC(O)C(=O)O
InChI: not available
Instrument: micrOTOF-Q
Instrument type: ESI-TOF
Precursor m/z: 217.109
Precursor type: [M-H]-
Base peak: 217.105
m/z	relative intensity
112.986	2
146.940	1
155.107	7
171.102	20
172.106	2
180.984	1
193.080	1
199.097	7
217.109	999
218.111	121
219.112	16
220.115	1
