Mass spectrum: 3-Hydroxy-3-phenylpropionic acid; ; ESI-TOF; CE:10 eV; [M-H]-
Name: 3-Hydroxy-3-phenylpropionic acid
Name: 3-Hydroxy-3-phenyl-propanoic acid
Name: Beta-hydroxy-benzenepropanoic acid
Name: Beta-hydroxyphenylpropionic acid
Class: unknown
Formula: C9H10O3
Exact mass: 166.06299417999998
SMILES: OC(=O)CC(O)C=1C=CC=CC=1
InChI: not available
Instrument: micrOTOF-Q
Instrument type: ESI-TOF
Precursor m/z: 165.055
Precursor type: [M-H]-
Base peak: 165.054
m/z	relative intensity
165.056	999
166.059	99
167.061	11
