Mass spectrum: 3-Methylglutaconic acid; ; ESI-TOF; CE:10 eV; [M-H]-
Name: 3-Methylglutaconic acid
Name: 3-Methyl-2-pentenedioic acid
Class: unknown
Formula: C6H8O4
Exact mass: 144.042258736
SMILES: CC(=CC(O)=O)CC(O)=O
InChI: not available
Instrument: micrOTOF-Q
Instrument type: ESI-TOF
Precursor m/z: 145.05
Precursor type: [M-H]-
Base peak: 99.0459
m/z	relative intensity
88.987	2
99.045	999
100.047	72
101.047	7
115.039	3
143.034	996
144.037	64
145.039	10
