Mass spectrum: Hydroxypyruvic acid; ; ESI-TOF; CE:10 eV; [M-H]-
Name: Hydroxypyruvic acid
Name: 3-Hydroxypyruvate
Name: 3-Hydroxy-2-oxopropanoic acid
Name: 3-Hydroxypyruvic acid
Name: Beta-hydroxypyruvate
Name: Beta-hydroxypyruvic acid
Name: Hydroxypyruvate
Name: OH-pyr
Name: OH-pyruvate
Class: unknown
Formula: C3H4O4
Exact mass: 104.010958608
SMILES: OCC(=O)C(O)=O
InChI: not available
Instrument: micrOTOF-Q
Instrument type: ESI-TOF
Precursor m/z: 177.091
Precursor type: [M-H]-
Base peak: 103.005
m/z	relative intensity
103.004	999
104.007	34
105.008	9
