Mass spectrum: D-Mannoheptulose; ; ESI-TOF; CE:10 eV; [M-H]-
Name: D-Mannoheptulose
Name: (+)-Mannoheptulose
Name: Alpha-D-Mannoheptulopyranose
Name: (D) Mannoheptulose
Name: Hept-2-ulose
Name: Mannoheptose
Name: D-Manno-2-heptulose
Class: unknown
Formula: C7H14O7
Exact mass: 210.07395278799999
SMILES: OCC1OC(O)(CO)C(O)C(O)C1(O)
InChI: not available
Instrument: micrOTOF-Q
Instrument type: ESI-TOF
Precursor m/z: 193.071
Precursor type: [M-H]-
Base peak: 209.071
m/z	relative intensity
71.012	5
89.021	52
101.023	123
102.027	5
103.003	58
113.021	24
119.035	492
120.039	23
121.016	23
131.035	10
143.035	16
149.045	55
150.048	3
161.043	3
174.955	3
179.055	15
191.056	33
192.059	3
193.040	2
209.067	999
210.070	74
211.071	18
