Mass spectrum: 2-Octenoic acid; MS/MS; ESI-TOF; CE:-8 eV; [M-H]-
Name: 2-Octenoic acid
Name: 2-Octenic acid
Name: (2E)-2-Octenoic acid
Name: (E)-Oct-2-enoic acid
Name: 2Z-Octenoic acid
Name: Oct-2-enoic acid
Name: Trans-2-octenoic acid
Name: Trans-alpha-octenoic acid
Class: unknown
Formula: C8H14O2
Exact mass: 142.099379688
SMILES: CCCCCC=CC(O)=O
InChI: not available
Instrument: micrOTOF-Q
Instrument type: ESI-TOF
Precursor m/z: 141.091
Precursor type: [M-H]-
Base peak: 141.094
m/z	relative intensity
141.091	999
142.095	88
