Mass spectrum: N-Methyltyramine; ; ESI-TOF; CE:10 eV; [M+H]+
Name: N-Methyltyramine
Name: Methyl-4-tyramine,4-hydroxy-N-methylphenethylamine,p-(2-methylaminoethyl)phenol ,para-(2-methylaminoethyl)phenol ,4-[2-(methylamino)ethyl]phenol
Class: unknown
Formula: C9H13NO
Exact mass: 151.099714036
SMILES: CNCCC=1C=CC(O)=CC=1
InChI: not available
Instrument: micrOTOF-Q
Instrument type: ESI-TOF
Precursor m/z: 121.065
Precursor type: [M+H]+
Base peak: 121.062
m/z	relative intensity
91.055	21
93.070	30
95.049	8
103.054	37
105.045	7
121.065	999
122.067	90
146.961	7
149.022	19
152.107	602
153.110	63
