Mass spectrum: Isoguanine; ; ESI-TOF; CE:10 eV; [M+H]+
Name: Isoguanine
Name: 6-Amino-3,7(9)-dihydro-purin-2-one
Name: 2H-Purin-2-one
Name: 2-Hydroxyadenine
Name: 2-Oxyadenineadenine
Name: 6-Amino-1,3-dihydro-
Name: 6-Amino-1,3-dihydro-2H-purin-2-one
Name: 2-Hydroxy-6-aminopurine
Name: 6-Amino-9H-purin-2-ol
Name: 2-OH-Ade
Name: 6-Amino-2-hydroxypurine
Name: 6-Amino-1,7-dihydropurin-2-one
Name: 2-Oxoadenine
Name: Guanopterin
Class: unknown
Formula: C5H5N5O
Exact mass: 151.04940978000002
SMILES: NC=1NC(=O)N=C2N=CNC=12
InChI: not available
Instrument: micrOTOF-Q
Instrument type: ESI-TOF
Precursor m/z: 152.057
Precursor type: [M+H]+
Base peak: 152.056
m/z	relative intensity
124.040	18
131.974	10
135.030	49
137.028	15
143.081	56
144.082	17
145.048	13
146.961	24
149.023	26
152.057	999
153.058	64
159.970	14
161.066	9
162.094	11
181.953	23
194.117	14
201.057	23
222.992	9
224.130	20
232.155	38
246.171	26
303.109	10
