Mass spectrum: 3-Hydroxysebacic acid; ; ESI-TOF; CE:10 eV; [M-H]-
Name: 3-Hydroxysebacic acid
Name: Hydroxy-decanedioic acid
Class: unknown
Formula: C10H18O5
Exact mass: 218.11542367599998
SMILES: OC(=O)CCCCCCC(O)CC(O)=O
InChI: not available
Instrument: micrOTOF-Q
Instrument type: ESI-TOF
Precursor m/z: 217.108
Precursor type: [M-H]-
Base peak: 217.103
m/z	relative intensity
111.081	9
146.942	2
155.106	26
156.108	2
157.086	106
158.089	8
165.053	2
171.100	3
173.081	67
174.085	6
195.063	5
199.096	24
200.099	2
203.129	4
217.108	999
218.111	106
219.113	15
