Mass spectrum: Hesperidin; ; ESI-TOF; CE:10 eV; [M-H]-
Name: Hesperidin
Name: Hesperetin 7-O-rutinoside
Name: Ciratin
Name: Hesperetin 7-rhamnoglucoside
Name: D: 3594
Name: Hesperitin-7-rutinoside
Class: unknown
Formula: C28H34O15
Exact mass: 610.1897703879999
SMILES: COC1=CC=C(C=C1(O))C2CC(=O)C=3C(O)=CC(=CC=3(O2))OC5OC(COC4OC(C)C(O)C(O)C4(O))C(O)C(O)C5(O)
InChI: not available
Instrument: micrOTOF-Q
Instrument type: ESI-TOF
Precursor m/z: 609.182
Precursor type: [M-H]-
Base peak: 609.186
m/z	relative intensity
609.182	999
610.186	312
611.188	78
612.191	14
613.193	2
