Mass spectrum: Cytidine-5'-diphosphocholine; ; ESI-TOF; CE:10 eV; [M-H]-
Name: Cytidine-5'-diphosphocholine
Name: CDP-choline
Name: Citicoline
Name: Cytidine Diphosphate Choline
Class: unknown
Formula: C14H26N4O11P2
Exact mass: 488.10733091199995
SMILES: C[N+](C)(C)CCOP(=O)([O-])OP(=O)(O)OCC1OC(C(O)C1(O))N2C=CC(N)=NC2(=O)
InChI: not available
Instrument: micrOTOF-Q
Instrument type: ESI-TOF
Precursor m/z: 269.045
Precursor type: [M-H]-
Base peak: 533.101
m/z	relative intensity
112.986	2
416.024	2
428.024	59
429.027	8
445.048	4
473.082	5
487.098	532
487.601	70
488.100	69
488.601	5
489.101	9
533.103	999
534.105	156
535.107	33
536.110	5
731.153	928
731.654	472
732.155	171
732.656	44
733.158	11
733.658	2
