Mass spectrum: 2-Furoylglycine; ; ESI-TOF; CE:10 eV; [M-H]-
Name: 2-Furoylglycine
Name: 2-(Furan-2-carbonylamino)acetic acid
Name: (2-Furoylamino)acetic acid
Name: Furfuroylglycine
Name: Furoylglycine
Name: N-(2-Furoyl)glycine
Name: Furoilglicina
Name: Pyromucuric acid
Name: N-2-Furoyl-glycine
Class: unknown
Formula: C7H7NO4
Exact mass: 169.037507704
SMILES: OC(=O)CNC(=O)C1=CC=CO1
InChI: not available
Instrument: micrOTOF-Q
Instrument type: ESI-TOF
Precursor m/z: 170.045
Precursor type: [M-H]-
Base peak: 168.029
m/z	relative intensity
67.017	2
100.002	4
124.040	60
125.043	5
138.019	3
146.941	2
168.030	999
169.033	72
170.035	10
