Mass spectrum: Homogentisic acid; ; ESI-TOF; CE:10 eV; [M-H]-
Name: Homogentisic acid
Name: 2,5-Dihydroxyphenylacetic acid
Name: 2,5-Dihydroxyphenylacetate
Name: Homogentisate
Class: unknown
Formula: C8H8O4
Exact mass: 168.042258736
SMILES: OC(=O)CC=1C=C(O)C=CC=1(O)
InChI: not available
Instrument: micrOTOF-Q
Instrument type: ESI-TOF
Precursor m/z: 123.044
Precursor type: [M-H]-
Base peak: 167.035
m/z	relative intensity
99.044	18
108.021	46
109.029	55
122.037	255
123.044	855
124.047	72
137.023	59
146.940	28
167.034	999
168.037	81
