Mass spectrum: Decanoyl-L-carnitine; ; ESI-TOF; CE:10 eV; [M+H]+
Name: Decanoyl-L-carnitine
Name: O-Decanoyl-L-carnitine
Name: [(2R)-2-Decanoyloxy-4-oxo-pentyl]-trimethyl-azanium
Class: unknown
Formula: C17H33NO4
Exact mass: 315.24095853600005
SMILES: CCCCCCCCCC(=O)OC(CC(=O)[O-])C[N+](C)(C)C
InChI: not available
Instrument: micrOTOF-Q
Instrument type: ESI-TOF
Precursor m/z: 123.076
Precursor type: [M+H]+
Base peak: 316.247
m/z	relative intensity
122.0962	14
146.9614	9
149.0234	14
181.9520	21
204.9688	9
224.1287	8
233.9832	10
316.2507	999
317.2536	177
318.2570	22
