Mass spectrum: 3-Methylxanthine; MS/MS; ESI-TOF; CE:-19 eV; [M-H]-
Name: 3-Methylxanthine
Name: 2,6-Dihydroxy-3-methylpurine
Name: 3-Methyl Xanthine
Name: 3-Methyl-3,9-dihydro-purine-2,6-dione
Name: 3-Methyl-xanthine
Class: unknown
Formula: C6H6N4O2
Exact mass: 166.049075432
SMILES: CN2C(=O)NC(=O)C=1NC=NC=12
InChI: not available
Instrument: micrOTOF-Q
Instrument type: ESI-TOF
Precursor m/z: 165.042
Precursor type: [M-H]-
Base peak: 165.041
m/z	relative intensity
79.016	21
94.039	74
122.035	770
123.038	43
140.046	72
150.018	330
165.041	999
166.043	72
