Mass spectrum: Quinicacid; MS/MS; ESI-TOF; CE:10 eV; [M-H]-
Name: Quinicacid
Name: Chinic acid,Kinic acid,quinate  ,Chinasaure,L-Quinic acid,L-Quinate,(-)-quinic acid,D-(-)-Quinic acid,D-QUINic acid
Class: unknown
Formula: C7H12O6
Exact mass: 192.06338810399998
SMILES: OC(=O)C1(O)(CC(O)C(O)C(O)C1)
InChI: not available
Instrument: micrOTOF-Q
Instrument type: ESI-TOF
Precursor m/z: 191.056
Precursor type: [M-H]-
Base peak: 85.0302
m/z	relative intensity
81.033	54
83.048	66
85.028	999
86.032	47
87.008	172
93.033	388
99.043	72
109.029	115
111.044	64
127.039	129
191.056	220
