Mass spectrum: Octanoyl-L-carnitine; MS/MS; ESI-TOF; CE:24 eV; [M+H]+
Name: Octanoyl-L-carnitine
Name: (3-Carboxy-2-hydroxypropyl)trimethyl-ammonium octanoate hydroxide inner salt ,DL-octanoylcarnitine ,L-octanoylcarnitine ,O-octanoyl-DL-carnitine ,octanoic acid ester with (+/-)-(3-carboxy-2-hydroxypropyl)trimethylammonium hydroxide inner salt
Class: unknown
Formula: C15H29NO4
Exact mass: 287.20965840800005
SMILES: CCCCCCCC(=O)OC(CC(=O)[O-])C[N+](C)(C)C
InChI: not available
Instrument: micrOTOF-Q
Instrument type: ESI-TOF
Precursor m/z: 288.218
Precursor type: [M+H]+
Base peak: 85.0273
m/z	relative intensity
85.029	999
86.032	41
87.033	5
109.101	5
127.111	59
128.115	5
144.102	45
145.117	9
229.142	82
230.145	9
288.214	114
289.218	17
