Mass spectrum: 6-Dimethylaminopurine; MS/MS; ESI-TOF; CE:33 eV; [M+H]+
Name: 6-Dimethylaminopurine
Name: 6,6-Dimethyladenine
Name: Dimethyladenine
Name: DMP
Name: N(6),N(6)-Dimethyladenine
Name: N,N-Dimethyl-6-aminopurine
Name: N,N-Dimethyladenine
Name: N,N-Dimethyl-Adenine
Name: N6,N6-Dimethyladenine
Name: N6,N6-Dimethyl-Adenine
Class: unknown
Formula: C7H9N5
Exact mass: 163.08579528799999
SMILES: CN(C)C2=NC=NC=1NC=NC=12
InChI: not available
Instrument: micrOTOF-Q
Instrument type: ESI-TOF
Precursor m/z: 164.093
Precursor type: [M+H]+
Base peak: 121.049
m/z	relative intensity
71.060	94
81.035	86
82.040	57
92.024	83
93.037	85
94.040	285
95.055	76
96.056	119
107.037	51
108.044	305
109.031	45
119.035	338
120.044	895
121.051	999
122.058	756
123.065	262
135.063	61
137.074	86
148.061	184
149.069	318
152.033	668
153.035	41
162.078	190
164.093	929
165.095	90
