Mass spectrum: 3-Methylindole; MS/MS; ESI-TOF; CE:31 eV; [M+H]+
Name: 3-Methylindole
Name: Skatole
Class: unknown
Formula: C9H9N
Exact mass: 131.073499288
SMILES: CC1=CNC=2C=CC=CC1=2
InChI: not available
Instrument: micrOTOF-Q
Instrument type: ESI-TOF
Precursor m/z: 132.082
Precursor type: [M+H]+
Base peak: 117.06
m/z	relative intensity
65.038	2
66.045	5
77.038	22
78.042	2
79.053	35
80.056	2
81.034	2
89.038	106
90.047	201
91.053	38
92.056	3
93.055	2
94.042	3
95.049	36
96.052	3
102.046	2
103.054	42
104.055	7
105.067	82
106.070	8
115.054	14
116.051	9
116.707	2
117.058	999
118.061	96
119.064	4
121.029	3
122.036	5
128.050	2
130.065	82
131.072	42
132.081	56
133.083	6
134.062	2
