Mass spectrum: (L) Homocysteinethiolactone; ; ESI-TOF; CE:10 eV; [M+H]+
Name: (L) Homocysteinethiolactone
Name: Homocysteine thiolactone,Homocysteine-thiolactone  ,L-Homocysteine thiolactone,DL-Homocysteine thiolactone,( -)-3-amino-2-thiolanon,3-aminodihydro-2(3H)-thiophenone,DL-3-aminotetrahydro-2-thiophenone,2(3H)-thiophenone, 3-aminodihydro-,( -)-3-aminotetrahydro-2-thiophenon,(+-)-3-aminodihydro-2(3H)-thiophenone,L-Homocysteine thiolactone hydrochloride,L-2-amino-4-mercaptobutyric acid 1,4-thiolactone hydrochloride
Class: unknown
Formula: C4H7NOS
Exact mass: 117.024834844
SMILES: NC1CCSC1(=O)
InChI: not available
Instrument: micrOTOF-Q
Instrument type: ESI-TOF
Precursor m/z: 118.032
Precursor type: [M+H]+
Base peak: 118.03
m/z	relative intensity
73.013	9
90.037	359
91.040	17
92.033	22
100.021	28
101.007	16
118.032	999
119.034	62
120.028	56
136.042	29
140.013	18
149.024	11
150.055	9
161.058	13
189.041	8
224.128	9
235.058	49
236.057	5
