Mass spectrum: Isoferulicacid; ; ESI-TOF; CE:10 eV; [M-H]-
Name: Isoferulicacid
Name: Hesperetic acid,Hespertitinic acid,3-hydroxy-4-methoxycinnamic acid  ,Cinnamic acid, 3-hydroxy-4-methoxy-,2-propenoic acid, 3-(3-hydroxy-4-methoxyphenyl)-,3-hydroxy-4-methoxycinnamic acid, predominantly trans ,
Class: unknown
Formula: C10H10O4
Exact mass: 194.0579088
SMILES: COC=1C=CC(C=CC(=O)O)=CC=1(O)
InChI: not available
Instrument: micrOTOF-Q
Instrument type: ESI-TOF
Precursor m/z: 193.051
Precursor type: [M-H]-
Base peak: 193.05
m/z	relative intensity
193.051	999
194.054	111
195.055	14
