Mass spectrum: N-Methyl aspartic acid; ; ESI-TOF; CE:10 eV; [M+H]+
Name: N-Methyl aspartic acid
Name: (2R)-2-Methylaminobutanedioic acid
Name: (R)-2-(Methylamino)succinic acid
Name: NMDA
Name: Methyl aspartic acid
Name: N-Methylaspartate
Name: N-Methyl-aspartic acid
Name: N-Methyl-D-aspartate
Name: N-Methyl-D-aspartic acid
Class: unknown
Formula: C5H9NO4
Exact mass: 147.053157768
SMILES: CNC(CC(O)=O)C(O)=O
InChI: not available
Instrument: micrOTOF-Q
Instrument type: ESI-TOF
Precursor m/z: 146.046
Precursor type: [M+H]+
Base peak: 148.062
m/z	relative intensity
84.044	15
88.039	396
89.042	15
102.055	288
103.058	16
114.067	40
130.050	66
131.972	6
136.048	11
148.060	999
149.062	66
150.064	12
170.043	30
