Mass spectrum: 5-Hydroxymethyluracil; ; ESI-TOF; CE:10 eV; [M+H]+
Name: 5-Hydroxymethyluracil
Name: 5-(Hydroxymethyl)pyrimidine-2,4-dione
Name: Uracil-5-methanol
Class: unknown
Formula: C5H6N2O3
Exact mass: 142.037842052
SMILES: OCC1=CNC(=O)NC1(=O)
InChI: not available
Instrument: micrOTOF-Q
Instrument type: ESI-TOF
Precursor m/z: 141.027
Precursor type: [M+H]+
Base peak: 125.035
m/z	relative intensity
82.028	240
100.039	232
125.034	999
126.039	61
143.044	809
144.049	52
149.023	35
150.111	92
165.026	184
233.036	55
237.061	54
249.061	248
250.065	30
267.073	193
268.076	22
285.086	111
286.088	16
309.042	69
337.008	16
337.997	211
339.003	229
340.006	34
