Mass spectrum: Gallic acid; ; ESI-TOF; CE:10 eV; [M+H]+
Name: Gallic acid
Name: Gallate
Name: 3,4,5-Trihydroxybenzoate
Name: 3,4,5-Trihydroxybenzoic acid
Name: Pyrogallol-5-carboxylic acid
Class: unknown
Formula: C7H6O5
Exact mass: 170.02152329199998
SMILES: OC(=O)C1=CC(O)=C(O)C(O)=C1
InChI: not available
Instrument: micrOTOF-Q
Instrument type: ESI-TOF
Precursor m/z: 173.094
Precursor type: [M+H]+
Base peak: 171.032
m/z	relative intensity
171.029	999
172.032	78
173.034	13
