Mass spectrum: Isovalerylcarnitine; ; ESI-TOF; CE:10 eV; [M+H]+
Name: Isovalerylcarnitine
Name: 3-Methylbutyrylcarnitine  ,1-propanaminium, 3-carboxy-N,N,N-trimethyl-2-(3-methyl-1-oxobutoxy)-, inner salt, (R)-,
Class: unknown
Formula: C12H23NO4
Exact mass: 245.162708216
SMILES: CC(C)CC(=O)OC(CC(=O)[O-])C[N+](C)(C)C
InChI: not available
Instrument: micrOTOF-Q
Instrument type: ESI-TOF
Precursor m/z: 244.155
Precursor type: [M+H]+
Base peak: 246.168
m/z	relative intensity
181.952	31
201.055	44
246.169	999
247.172	136
248.174	18
