Mass spectrum: Methyl-b-D-galactopyranoside; MS/MS; ESI-TOF; CE:7 eV; [M+H]+
Name: Methyl-b-D-galactopyranoside
Name: Methyl b-D-galactoside
Class: unknown
Formula: C7H14O6
Exact mass: 194.07903816799998
SMILES: COC1OC(CO)C(O)C(O)C1(O)
InChI: not available
Instrument: micrOTOF-Q
Instrument type: ESI-TOF
Precursor m/z: 195.088
Precursor type: [M+H]+
Base peak: 163.059
m/z	relative intensity
85.029	273
91.040	671
145.050	449
163.060	999
