Mass spectrum: 3-Hydroxy-3-phenylpropionic acid; MS/MS; ESI-TOF; CE:18 eV; [M+H]+
Name: 3-Hydroxy-3-phenylpropionic acid
Name: 3-Hydroxy-3-phenyl-propanoic acid
Name: Beta-hydroxy-benzenepropanoic acid
Name: Beta-hydroxyphenylpropionic acid
Class: unknown
Formula: C9H10O3
Exact mass: 166.06299417999998
SMILES: OC(=O)CC(O)C=1C=CC=CC=1
InChI: not available
Instrument: micrOTOF-Q
Instrument type: ESI-TOF
Precursor m/z: 149.06
Precursor type: [M+H]+
Base peak: 103.057
m/z	relative intensity
77.041	11
79.053	48
95.050	37
103.054	999
104.059	96
105.048	17
107.049	31
121.030	16
131.049	710
132.053	85
149.025	16
