Mass spectrum: 3-Phenylpropionylglycine; ; ESI-TOF; CE:10 eV; [M+H]+
Name: 3-Phenylpropionylglycine
Name: (3-Phenylpropionyl)glycine ,(3-phenyl-propionylamino)-acetate ,(3-phenyl-propionylamino)-acetic acid ,N-(3-phenylpropanoyl)glycine ,N-(3-phenyl-propionyl)-glycine ,phenylpropionylglycine,,
Class: unknown
Formula: C11H13O3N
Exact mass: 207.089543276
SMILES: O=C(O)CNCCC(=O)C=1C=CC=CC=1
InChI: not available
Instrument: micrOTOF-Q
Instrument type: ESI-TOF
Precursor m/z: 218.14
Precursor type: [M+H]+
Base peak: 208.097
m/z	relative intensity
76.041	218
77.043	7
105.069	81
106.072	8
122.095	7
133.064	164
134.068	15
149.024	20
162.091	14
163.942	6
181.952	17
190.086	29
208.098	999
209.101	116
210.104	12
224.128	11
230.080	472
231.084	53
232.084	6
280.030	10
