Mass spectrum: Decanoyl-L-carnitine; MS/MS; ESI-TOF; CE:25 eV; [M+H]+
Name: Decanoyl-L-carnitine
Name: O-Decanoyl-L-carnitine
Name: [(2R)-2-Decanoyloxy-4-oxo-pentyl]-trimethyl-azanium
Class: unknown
Formula: C17H33NO4
Exact mass: 315.240958536
SMILES: CCCCCCCCCC(=O)OC(CC(=O)[O-])C[N+](C)(C)C
InChI: not available
Instrument: micrOTOF-Q
Instrument type: ESI-TOF
Precursor m/z: 316.251
Precursor type: [M+H]+
Base peak: 85.0294
m/z	relative intensity
81.069	7
85.028	999
86.032	43
95.086	9
144.102	38
155.143	50
257.176	42
258.179	6
316.251	45
317.255	9
