Mass spectrum: Cinnamic acid ethyl ester; MS/MS; ESI-TOF; CE:10 eV; [M+H]+
Name: Cinnamic acid ethyl ester
Class: unknown
Formula: C11H12O2
Exact mass: 176.083729624
SMILES: CCOC(=O)C=CC1=CC=CC=C1
InChI: not available
Instrument: micrOTOF-Q
Instrument type: ESI-TOF
Precursor m/z: 177.091
Precursor type: [M+H]+
Base peak: 131.046
m/z	relative intensity
103.054	405
104.059	35
105.034	66
131.049	999
132.053	102
149.061	15
