Mass spectrum: Isobutyrylglycine; ; ESI-TOF; CE:10 eV; [M-H]-
Name: Isobutyrylglycine
Name: 2-(Butan-2-ylamino)acetic acid
Name: Isobutyroylglycine
Class: unknown
Formula: C6H11NO3
Exact mass: 145.07389321199997
SMILES: CC(C)C(=O)NCC(O)=O
InChI: not available
Instrument: micrOTOF-Q
Instrument type: ESI-TOF
Precursor m/z: 144.066
Precursor type: [M-H]-
Base peak: 144.068
m/z	relative intensity
74.024	52
100.076	13
126.054	2
130.992	2
144.066	999
145.069	71
146.070	7
