Mass spectrum: Ectoine; MS/MS; ESI-TOF; CE:-18 eV; [M-H]-
Name: Ectoine
Name: (S)-2-Methyl-1,4,5,6-tetrahydropyrimidine-4-carboxylic acid
Name: THP(B)
Class: unknown
Formula: C6H10N2O2
Exact mass: 142.07422756
SMILES: CC=1NCCC(N=1)C(O)=O
InChI: not available
Instrument: micrOTOF-Q
Instrument type: ESI-TOF
Precursor m/z: 141.068
Precursor type: [M-H]-
Base peak: 141.067
m/z	relative intensity
86.022	23
95.061	18
141.067	999
142.070	68
