Mass spectrum: (L) Tyrosyl-L-leucine; ; ESI-TOF; CE:10 eV; [M-H]-
Name: (L) Tyrosyl-L-leucine
Name: (2S)-2-[[(2S)-2-Amino-3-(4-hydroxyphenyl)propanoyl]amino]-4-methylpentanoic acid
Name: Tyr-Leu
Class: unknown
Formula: C15H22N2O4
Exact mass: 294.157957184
SMILES: CC(C)CC(NC(=O)C(N)CC=1C=CC(O)=CC=1)C(=O)O
InChI: not available
Instrument: micrOTOF-Q
Instrument type: ESI-TOF
Precursor m/z: 295.165
Precursor type: [M-H]-
Base peak: 293.152
m/z	relative intensity
293.151	999
294.154	173
295.157	22
296.158	2
