Mass spectrum: 5'-Deoxyadenosine; ; ESI-TOF; CE:10 eV; [M-H]-
Name: 5'-Deoxyadenosine
Name: 5-Deoxyadenosine
Name: 5'-Deoxy-Adenosine
Name: CH3Ado
Class: unknown
Formula: C10H13N5O3
Exact mass: 251.101839276
SMILES: CC1OC(C(O)C1(O))N3C=NC=2C(N)=NC=NC=23
InChI: not available
Instrument: micrOTOF-Q
Instrument type: ESI-TOF
Precursor m/z: 256.094
Precursor type: [M-H]-
Base peak: 250.09
m/z	relative intensity
250.095	999
251.097	129
252.099	14
253.101	1
