Mass spectrum: (DL) 2-amino-3-phosphonopropionic acid; ; ESI-TOF; CE:10 eV; [M+H]+
Name: (DL) 2-amino-3-phosphonopropionic acid
Name: 2-Amino-3-phosphonopropionic acid
Name: 2-Amino-3-phosphonopropionate
Name: 3-Phosphono-DL-alanine
Name: 2-Amino-3-phosphonopropanoate
Name: DL-2-amino-3-phosphonopropionic acid
Name: AP-3
Name: Phosphonoalanine
Class: unknown
Formula: C3H8NO5P
Exact mass: 169.014008986
SMILES: NC(CP(O)(O)=O)C(O)=O
InChI: not available
Instrument: micrOTOF-Q
Instrument type: ESI-TOF
Precursor m/z: 135.029
Precursor type: [M+H]+
Base peak: 170.025
m/z	relative intensity
97.999	5
106.005	9
124.016	451
125.018	12
126.020	3
149.023	9
161.062	4
170.022	999
171.025	38
172.025	10
339.040	128
340.042	10
341.044	3
