Mass spectrum: 2-Hydroxysebacic acid; MS/MS; ESI-TOF; CE:12 eV; [M+H]+
Name: 2-Hydroxysebacic acid
Name: 2-Hydroxy-decandioate
Name: 2-Hydroxy-decandioic acid
Name: 2-Hydroxydecanedioate
Name: 2-Hydroxy-decanedioic acid
Name: 2-Hydroxysebacate
Name: a-Hydroxysebasate
Name: a-Hydroxysebasic acid
Name: Alpha-hydroxysebasate
Name: Alpha-hydroxysebasic acid
Class: unknown
Formula: C10H18O5
Exact mass: 218.115423676
SMILES: O=C(O)CCCCCCCC(O)C(=O)O
InChI: not available
Instrument: micrOTOF-Q
Instrument type: ESI-TOF
Precursor m/z: 219.123
Precursor type: [M+H]+
Base peak: 173.114
m/z	relative intensity
109.101	147
110.104	12
137.096	13
155.107	201
156.110	23
173.117	999
174.121	113
183.101	14
201.111	12
224.127	14
