Mass spectrum: Indolpropionic acid; ; ESI-TOF; CE:10 eV; [M-H]-
Name: Indolpropionic acid
Class: unknown
Formula: C11H11NO2
Exact mass: 189.078978592
SMILES: O=C(O)CCC1=CNC=2C=CC=CC1=2
InChI: not available
Instrument: micrOTOF-Q
Instrument type: ESI-TOF
Precursor m/z: 190.086
Precursor type: [M-H]-
Base peak: 188.069
m/z	relative intensity
112.985	35
116.050	29
142.065	15
144.079	11
146.942	13
180.981	13
188.071	999
189.074	124
190.077	11
210.053	17
256.057	83
257.061	11
278.038	6
300.082	6
324.045	7
