Mass spectrum: S-2-Phenylpropionic acid; ; ESI-TOF; CE:10 eV; [M-H]-
Name: S-2-Phenylpropionic acid
Name: (S)-(+)-Hydratropic acid
Name: (S)-HTA
Class: unknown
Formula: C9H10O2
Exact mass: 150.06807956
SMILES: CC(C(=O)O)C=1C=CC=CC=1
InChI: not available
Instrument: micrOTOF-Q
Instrument type: ESI-TOF
Precursor m/z: 165.057
Precursor type: [M-H]-
Base peak: 149.063
m/z	relative intensity
93.033	13
105.070	18
119.049	23
149.060	999
150.064	105
189.053	105
204.038	33
233.041	140
234.046	18
321.108	130
322.111	29
