Mass spectrum: 2,3-Dihydroxybenzoic acid; ; ESI-TOF; CE:10 eV; [M+H]+
Name: 2,3-Dihydroxybenzoic acid
Name: 2,3-Dihydroxybenzoate
Name: 2-Pyrocatechuate
Name: 2-Pyrocatechuic acid
Name: 3-Hydroxysalicylate
Name: 3-Hydroxysalicylic acid
Name: Catechol-3-carboxylate
Name: Catecholcarboxylate
Name: Catecholcarboxylic acid
Name: DHBA
Name: DOBK
Name: o-Pyrocatechuate
Name: o-Pyrocatechuic acid
Name: Pyrocatechuate
Name: Pyrocatechuic acid
Class: unknown
Formula: C7H6O4
Exact mass: 154.026608672
SMILES: OC(=O)C1=CC=CC(O)=C1(O)
InChI: not available
Instrument: micrOTOF-Q
Instrument type: ESI-TOF
Precursor m/z: 153.019
Precursor type: [M+H]+
Base peak: 155.035
m/z	relative intensity
155.034	999
156.037	78
157.039	11
