Mass spectrum: 1-Methylxanthine; ; ESI-TOF; CE:10 eV; [M+H]+
Name: 1-Methylxanthine
Class: unknown
Formula: C6H6N4O2
Exact mass: 166.049075432
SMILES: CN1C(=O)NC=2N=CNC=2(C1(=O))
InChI: not available
Instrument: micrOTOF-Q
Instrument type: ESI-TOF
Precursor m/z: 165.042
Precursor type: [M+H]+
Base peak: 167.054
m/z	relative intensity
106.992	2
110.035	13
113.963	4
118.087	3
119.047	4
125.002	4
128.951	7
131.975	3
137.026	10
141.958	5
145.930	4
146.961	6
149.023	14
150.020	3
159.968	10
161.063	9
163.940	13
166.589	6
167.057	999
168.058	69
169.060	6
