Mass spectrum: Phenylaceticacid; ; ESI-TOF; CE:10 eV; [M+H]+
Name: Phenylaceticacid
Name: Benzeneacetic acid,a-Tolylic acid,PAA,
Name: AIDS017618, 114-70-5 (hydrochloride salt), NSC 125718,52009-49-1 (calcium salt), AIDS-017618, 13005-36-2 (potassium salt), AI3-08920, NSC139637, STK297835, LS-3041, NCGC00159477-02, NCI60_000596,
Name: Kyselina fenyloctova, .alpha.-Toluic acid, 2-phenylethanoic acid, phenylacetic acid (natural), Kyselina fenyloctova [Czech], phenyl-acetic acid, .omega.-phenylacetic acid, bmse000220, FEMA No. 2878, UNII-ER5I1W795A
Name: NCI60_002571, C07086, 103-82-2, 4-09-00-01614 (Beilstein Handbook Reference), I14-7335, 8727557E-AA75-49E9-8E5A-7A2412D71888, InChI=1/C8H8O2/c9-8(10)6-7-4-2-1-3-5-7/H1-5H,6H2,(H,9,10, 114-70-5, 51146-16-8,PA, PAC
Name: P16621_ALDRicH, HSDB 5010, P6061_SIGMA, W287806_ALDRicH, W287814_ALDRicH, C8H8O2, CHEbi:30745, EineCS 203-148-6, AKL-PFB-011020, BRN 1099647, 7188-16-1 (ammonium salt), MolPort-001-002-105, NSC125718,
Name: Phenylacetate, Benzenacetic acid, alpha-Toluic acid, acetic acid, phenyl-, phenylethanoic acid, phenyllacetic acid, 2-phenylacetic acid, Benzylformic acid, Ucephan, Benzylcarboxylic acid, benzeneacetiic acid
Class: unknown
Formula: C8H8O2
Exact mass: 136.052429496
SMILES: O=C(O)CC=1C=CC=CC=1
InChI: not available
Instrument: micrOTOF-Q
Instrument type: ESI-TOF
Precursor m/z: 293.077
Precursor type: [M+H]+
Base peak: 137.057
m/z	relative intensity
91.054	681
92.058	48
119.049	43
121.065	11
122.095	16
137.059	999
138.062	94
