Mass spectrum: Glycochenodeoxycholic acid; ; ESI-TOF; CE:10 eV; [M-H]-
Name: Glycochenodeoxycholic acid
Name: Chenodeoxycholylglycine
Name: Glycine chenodeoxycholate
Name: Glycochenodeoxycholate
Name: N-(3Alpha,7alpha-dihydroxy-5beta-cholan-24-oyl)glycine
Name: [(3Alpha,7alpha-dihydroxy-24-oxo-5beta-cholan-24-yl)amino]acetic acid
Class: unknown
Formula: C26H43NO5
Exact mass: 449.314123476
SMILES: [H]C13(CC(O)CCC1(C)C4([H])(CCC2(C)(C([H])(CCC2([H])C4([H])(C(O)C3))C(C)CCC(=O)NCC(O)=O)))
InChI: not available
Instrument: micrOTOF-Q
Instrument type: ESI-TOF
Precursor m/z: 167.034
Precursor type: [M-H]-
Base peak: 448.304
m/z	relative intensity
448.307	999
449.310	291
450.313	51
451.316	7
