Mass spectrum: Indole-3-propionicacid; MS/MS; ESI-TOF; CE:-19 eV; [M-H]-
Name: Indole-3-propionicacid
Name: 3-Indololpropionic acid
Name: 3-(3-Indolyl)propanoic acid
Name: 3-(3-Indolyl)propionic acid
Name: IPA
Class: unknown
Formula: C11H11NO2
Exact mass: 189.078978592
SMILES: O=C(O)CCC1=CNC=2C=CC=CC1=2
InChI: not available
Instrument: micrOTOF-Q
Instrument type: ESI-TOF
Precursor m/z: 188.073
Precursor type: [M-H]-
Base peak: 116.052
m/z	relative intensity
116.050	999
117.054	90
142.065	188
144.082	218
145.085	26
188.071	110
