Mass spectrum: D-Panthenol; ; ESI-TOF; CE:10 eV; [M-H]-
Name: D-Panthenol
Name: (R)-(+)-2,4-Dihydroxy-N-(3-hydroxypropyl)-3,3-dimethylbutyramide
Name: (R)-2,4-Dihydroxy-3,3-dimethylbutyric 3-hydroxypropylamide
Name: Dexpanthenol
Name: Provitamin B
Name: D-Pantothenyl alcohol
Class: unknown
Formula: C9H19NO4
Exact mass: 205.131408088
SMILES: CC(C)(CO)C(O)C(=O)NCCCO
InChI: not available
Instrument: micrOTOF-Q
Instrument type: ESI-TOF
Precursor m/z: 129.066
Precursor type: [M-H]-
Base peak: 204.125
m/z	relative intensity
87.007	1
88.988	3
99.044	1
102.055	7
112.986	3
129.054	2
146.944	1
156.102	1
174.957	1
204.124	999
205.126	102
206.128	11
