Mass spectrum: Isohomovanillicacid; ; ESI-TOF; CE:10 eV; [M+H]+
Name: Isohomovanillicacid
Name: Homoisovanillic acid,4-methoxy-3-hydroxyphenylacetic acid,3-hydroxy-4-methoxyphenylacetic acid,isohomovanillate,Homo-iso-vanillic acid,Homoisovanillate
Class: unknown
Formula: C9H10O4
Exact mass: 182.0579088
SMILES: COC1=CC=C(CC(=O)O)C=C1(O)
InChI: not available
Instrument: micrOTOF-Q
Instrument type: ESI-TOF
Precursor m/z: 183.066
Precursor type: [M+H]+
Base peak: 183.067
m/z	relative intensity
183.065	999
184.069	100
185.069	13
