Mass spectrum: Orange yellow S; MS/MS; ESI-TOF; CE:27 eV; [M+H]+
Name: Orange yellow S
Name: Cilefa Orange S
Name: Orange PAL
Name: Para Orange
Name: Food yellow 3
Name: Sunset yellow
Name: Twilight Yellow
Name: Yellow S
Name: Yellow Orange S
Class: unknown
Formula: C16H10N2Na2O7S2
Exact mass: 451.97248121999996
SMILES: O=C3C=CC=1C=C(C=CC=1C3(=NNC=2C=CC(=CC=2)S(=O)(=O)[O-]))S(=O)(=O)[O-].[Na+].[Na+]
InChI: not available
Instrument: micrOTOF-Q
Instrument type: ESI-TOF
Precursor m/z: 409.016
Precursor type: [M+H]+
Base peak: 236
m/z	relative intensity
108.045	58
156.017	26
172.036	42
173.015	907
174.017	64
175.013	37
182.036	91
208.005	43
226.018	106
236.001	999
237.004	117
238.005	73
254.012	175
272.021	39
326.035	32
328.051	70
353.033	35
391.002	28
392.012	269
393.013	43
394.010	33
409.017	42
