Mass spectrum: 5-Aminolevulinic acid; MS/MS; ESI-TOF; CE:-11 eV; [M-H]-
Name: 5-Aminolevulinic acid
Name: 5-Amino-4-oxopentanoate
Name: 2-Amino-Levulinic acid
Name: 5-Amino-4-oxovaleric acid
Name: 5-Aminolevulinate
Name: Aminolevulinic acid
Name: Delta-aminolevulinic acid
Class: unknown
Formula: C5H9NO3
Exact mass: 131.05824314799997
SMILES: NCC(=O)CCC(O)=O
InChI: not available
Instrument: micrOTOF-Q
Instrument type: ESI-TOF
Precursor m/z: 130.051
Precursor type: [M-H]-
Base peak: 130.051
m/z	relative intensity
86.059	122
112.040	219
130.051	999
131.054	73
