Mass spectrum: 3-Phenylpropionylglycine; MS/MS; ESI-TOF; CE:10 eV; [M-H]-
Name: 3-Phenylpropionylglycine
Name: (3-Phenylpropionyl)glycine ,(3-phenyl-propionylamino)-acetate ,(3-phenyl-propionylamino)-acetic acid ,N-(3-phenylpropanoyl)glycine ,N-(3-phenyl-propionyl)-glycine ,phenylpropionylglycine,,
Class: unknown
Formula: C11H13O3N
Exact mass: 207.089543276
SMILES: O=C(O)CNCCC(=O)C=1C=CC=CC=1
InChI: not available
Instrument: micrOTOF-Q
Instrument type: ESI-TOF
Precursor m/z: 206.083
Precursor type: [M-H]-
Base peak: 74.0254
m/z	relative intensity
74.023	999
75.026	27
84.045	27
131.050	87
132.054	9
160.077	12
162.092	192
163.095	21
206.082	55
