Mass spectrum: 2-Hydroxy-5-methoxybenzoic acid; ; ESI-TOF; CE:10 eV; [M-H]-
Name: 2-Hydroxy-5-methoxybenzoic acid
Name: 2-Hydroxy-5-methoxybenzoate
Name: 5-Methoxysalicylate
Name: 2-Hydroxy-5-methoxybenzoic acid
Name: 2-Hydroxy-5-methoxy-Benzoic acid
Name: 5-Methoxy-2-hydroxybenzoate
Name: 5-Methoxy-2-hydroxybenzoic acid
Name: 5-Methoxysalicylic acid
Name: 6-Hydroxy-m-Anisate
Name: 6-Hydroxy-m-Anisic acid
Name: 6-Methoxy-m-anisate
Name: 6-Methoxy-m-anisic acid
Class: unknown
Formula: C8H8O4
Exact mass: 168.042258736
SMILES: COC1=CC=C(O)C(=C1)C(O)=O
InChI: not available
Instrument: micrOTOF-Q
Instrument type: ESI-TOF
Precursor m/z: 152.012
Precursor type: [M-H]-
Base peak: 167.037
m/z	relative intensity
108.021	135
109.024	8
112.986	10
146.939	6
152.011	281
153.014	20
167.035	999
168.038	81
169.039	11
357.057	68
358.061	11
