Mass spectrum: Orange yellow S; ; ESI-TOF; CE:10 eV; [M+H]+
Name: Orange yellow S
Name: Cilefa Orange S
Name: Orange PAL
Name: Para Orange
Name: Food yellow 3
Name: Sunset yellow
Name: Twilight Yellow
Name: Yellow S
Name: Yellow Orange S
Class: unknown
Formula: C16H10N2Na2O7S2
Exact mass: 451.97248121999996
SMILES: O=C3C=CC=1C=C(C=CC=1C3(=NNC=2C=CC(=CC=2)S(=O)(=O)[O-]))S(=O)(=O)[O-].[Na+].[Na+]
InChI: not available
Instrument: micrOTOF-Q
Instrument type: ESI-TOF
Precursor m/z: 123.054
Precursor type: [M+H]+
Base peak: 409.01
m/z	relative intensity
406.998	43
409.015	999
410.018	199
411.013	119
412.016	18
