Mass spectrum: N-Acetylisatin; MS/MS; ESI-TOF; CE:20 eV; [M+H]+
Name: N-Acetylisatin
Name: 1-Acetylisatin
Name: Acetylisatin
Name: 1-Acetyl-indole-2,3-dione
Name: D: 11321
Class: unknown
Formula: C10H7NO3
Exact mass: 189.042593084
SMILES: CC(=O)N2C(=O)C(=O)C=1C=CC=CC=12
InChI: not available
Instrument: micrOTOF-Q
Instrument type: ESI-TOF
Precursor m/z: 208.064
Precursor type: [M+H]+
Base peak: 120.046
m/z	relative intensity
92.051	35
120.047	999
121.050	81
122.057	7
148.042	22
162.058	17
166.052	21
