Mass spectrum: 3,4-Dihydroxymandelic acid; ; ESI-TOF; CE:10 eV; [M+H]+
Name: 3,4-Dihydroxymandelic acid
Name: 3,4 Dihydroxymandelate
Name: (+-)-Isomer,3,4-dihydroxymandelic acid
Name: (S)-Isomer,3,4-dihydroxymandelic acid
Name: 2-(3,4-Dihydroxyphenyl)-2-hydroxy-acetic acid
Name: 3,4 Dihydroxymandelic acid
Name: 3,4-Dihydroxymandelate
Name: 3,4-Dihydroxymandelic acid
Name: 3,4-Dihydroxyphenylglycolate
Name: 3,4-Dihydroxyphenylglycolic acid
Name: DHMA
Name: Dihydroxymandelate
Name: Dihydroxymandelic acid
Name: DL-3,4-dihydroxymandelic acid
Class: unknown
Formula: C8H8O5
Exact mass: 184.03717335599998
SMILES: OC(=O)C(O)C1=CC=C(O)C(O)=C1
InChI: not available
Instrument: micrOTOF-Q
Instrument type: ESI-TOF
Precursor m/z: 167.034
Precursor type: [M+H]+
Base peak: 167.036
m/z	relative intensity
93.033	12
111.044	65
112.047	4
121.030	5
137.025	7
139.039	200
140.042	15
149.023	68
150.027	6
159.968	3
167.034	999
168.037	83
169.038	12
287.056	50
288.060	9
