Mass spectrum: 5-Aminolevulinic acid; ; ESI-TOF; CE:10 eV; [M+H]+
Name: 5-Aminolevulinic acid
Name: 5-Amino-4-oxopentanoate
Name: 2-Amino-Levulinic acid
Name: 5-Amino-4-oxovaleric acid
Name: 5-Aminolevulinate
Name: Aminolevulinic acid
Name: Delta-aminolevulinic acid
Class: unknown
Formula: C5H9NO3
Exact mass: 131.058243148
SMILES: NCC(=O)CCC(O)=O
InChI: not available
Instrument: micrOTOF-Q
Instrument type: ESI-TOF
Precursor m/z: 132.066
Precursor type: [M+H]+
Base peak: 132.066
m/z	relative intensity
68.048	10
72.044	4
86.059	176
87.062	10
96.044	18
97.030	6
114.055	547
115.056	35
116.059	4
132.066	999
133.068	58
134.070	8
154.048	15
227.103	69
228.106	8
