Mass spectrum: Salicyl amide; ; ESI-TOF; CE:10 eV; [M-H]-
Name: Salicyl amide
Class: unknown
Formula: C7H7NO2
Exact mass: 137.047678464
SMILES: NC(=O)C1=CC=CC=C1(O)
InChI: not available
Instrument: micrOTOF-Q
Instrument type: ESI-TOF
Precursor m/z: 138.055
Precursor type: [M-H]-
Base peak: 136.04
m/z	relative intensity
91.017	12
93.033	25
118.029	188
119.033	13
136.040	999
137.043	82
138.045	6
