Mass spectrum: Salicyl amide; ; ESI-TOF; CE:10 eV; [M+H]+
Name: Salicyl amide
Class: unknown
Formula: C7H7NO2
Exact mass: 137.047678464
SMILES: NC(=O)C1=CC=CC=C1(O)
InChI: not available
Instrument: micrOTOF-Q
Instrument type: ESI-TOF
Precursor m/z: 138.055
Precursor type: [M+H]+
Base peak: 138.053
m/z	relative intensity
138.055	999
139.058	79
140.059	7
