Mass spectrum: 4-Hydroxyphenylethanol; ; ESI-TOF; CE:10 eV; [M-H]-
Name: 4-Hydroxyphenylethanol
Name: 4-Hydroxyphenylethylalcohol
Name: 2-(4-Hydroxyphenyl)ehanol
Class: unknown
Formula: C8H10O2
Exact mass: 138.06807956
SMILES: OCCC1=CC=C(O)C=C1
InChI: not available
Instrument: micrOTOF-Q
Instrument type: ESI-TOF
Precursor m/z: 121.066
Precursor type: [M-H]-
Base peak: 137.065
m/z	relative intensity
137.061	999
138.064	88
139.066	8
