Mass spectrum: Daidzein; MS/MS; ESI-TOF; CE:-23 eV; [M-H]-
Name: Daidzein
Name: 7-Hydroxy-3-(4-hydroxy-phenyl)-4H-1-benzo-pyran-4-one
Name: 4',7-Dihydroxybutisobutflavone
Name: 7-Hydroxy-3-(4-hydroxy-phenyl)-chromone
Class: unknown
Formula: C15H10O4
Exact mass: 254.0579088
SMILES: OC1=CC=C(C=C1)C2=COC=3C=C(O)C=CC=3(C2(=O))
InChI: not available
Instrument: micrOTOF-Q
Instrument type: ESI-TOF
Precursor m/z: 253.049
Precursor type: [M-H]-
Base peak: 253.045
m/z	relative intensity
133.028	9
135.008	9
153.019	7
197.059	10
208.051	6
209.060	20
224.046	18
225.053	17
252.042	5
253.049	999
254.052	142
255.054	18
