Mass spectrum: Hydroferulic acid; MS/MS; ESI-TOF; CE:18 eV; [M+H]+
Name: Hydroferulic acid
Name: 3-(4-Hydroxy-3-methoxyphenyl)propionic acid
Class: unknown
Formula: C10H12O4
Exact mass: 196.073558864
SMILES: COC1=CC(CCC(O)=O)=CC=C1(O)
InChI: not available
Instrument: micrOTOF-Q
Instrument type: ESI-TOF
Precursor m/z: 137.061
Precursor type: [M+H]+
Base peak: 137.061
m/z	relative intensity
66.044	14
77.037	13
79.053	28
81.069	12
91.054	28
94.042	606
95.046	59
105.039	19
107.048	16
109.065	10
122.037	857
123.040	72
135.045	8
137.060	999
138.063	95
139.066	8
