Mass spectrum: N-Methyl-Nicotinamide; ; ESI-TOF; CE:10 eV; [M-H]-
Name: N-Methyl-Nicotinamide
Class: unknown
Formula: C7H8N2O
Exact mass: 136.063662876
SMILES: CNC(=O)C=1C=CC=NC=1
InChI: not available
Instrument: micrOTOF-Q
Instrument type: ESI-TOF
Precursor m/z: 137.071
Precursor type: [M-H]-
Base peak: 181.063
m/z	relative intensity
89.023	94
112.986	712
135.056	82
157.013	34
180.974	154
181.062	999
182.064	84
183.078	94
190.928	73
225.081	42
227.066	567
228.073	63
248.960	47
257.101	40
271.119	273
272.122	45
273.135	190
295.052	48
317.124	285
318.128	50
363.128	47
