Mass spectrum: Hydroferulic acid; ; ESI-TOF; CE:10 eV; [M-H]-
Name: Hydroferulic acid
Name: 3-(4-Hydroxy-3-methoxyphenyl)propionic acid
Class: unknown
Formula: C10H12O4
Exact mass: 196.073558864
SMILES: COC1=CC(CCC(O)=O)=CC=C1(O)
InChI: not available
Instrument: micrOTOF-Q
Instrument type: ESI-TOF
Precursor m/z: 197.081
Precursor type: [M-H]-
Base peak: 195.068
m/z	relative intensity
112.985	3
119.051	2
121.028	4
123.045	2
135.044	14
136.052	22
137.054	2
146.943	3
151.060	2
177.053	2
180.973	2
195.067	999
196.070	111
197.071	13
