Mass spectrum: 5-Methyltetrahydrofolic acid; MS/MS; ESI-TOF; CE:26 eV; [M+H]+
Name: 5-Methyltetrahydrofolic acid
Name: 5-Methyl-5,6,7,8-tetrahydropteroyl-L-glutamic acid Disodium salt
Name: 5-Methyltetrahydrofolate
Class: unknown
Formula: C20H25N7O6
Exact mass: 459.18663152
SMILES: CN3C(CNC=1C=CC(=CC=1)C(=O)NC(CCC(O)=O)C(O)=O)CNC=2N=C(N)NC(=O)C=23
InChI: not available
Instrument: micrOTOF-Q
Instrument type: ESI-TOF
Precursor m/z: 460.192
Precursor type: [M+H]+
Base peak: 313.135
m/z	relative intensity
180.087	287
181.089	34
194.102	38
313.139	999
314.142	176
331.149	85
