Mass spectrum: Ribitol; MS/MS; ESI-TOF; CE:12 eV; [M+H]+
Name: Ribitol
Name: Adonitol,meso-ribitol,
Class: unknown
Formula: C5H12O5
Exact mass: 152.06847348399998
SMILES: OCC(O)C(O)C(O)CO
InChI: not available
Instrument: micrOTOF-Q
Instrument type: ESI-TOF
Precursor m/z: 153.076
Precursor type: [M+H]+
Base peak: 99.0434
m/z	relative intensity
69.036	364
71.049	66
73.029	68
99.043	999
100.048	27
117.054	263
121.055	66
149.023	218
