Mass spectrum: Phloridzin; ; ESI-TOF; CE:10 eV; [M+H]+
Name: Phloridzin
Name: Phlorizin,Phlorhizin,Phlorizoside,Phlorrhizin  ,Phlorizine,Floridzin,Phloridzosid,Phlorrhizen
Name: Phloretin 2'-glucoside
Class: unknown
Formula: C21H24O10
Exact mass: 436.13694696799996
SMILES: OCC3OC(OC=2C=C(O)C=C(O)C=2(C(=O)CCC1=CC=C(O)C=C1))C(O)C(O)C3(O)
InChI: not available
Instrument: micrOTOF-Q
Instrument type: ESI-TOF
Precursor m/z: 437.144
Precursor type: [M+H]+
Base peak: 275.094
m/z	relative intensity
107.050	143
108.053	11
127.039	5
149.060	43
150.063	4
169.050	60
170.052	5
275.091	999
276.094	154
277.097	20
278.099	3
317.102	7
419.132	12
420.134	3
437.144	127
438.146	29
439.149	5
459.125	94
460.129	20
461.125	5
490.055	4
599.198	46
600.201	14
601.202	4
