Mass spectrum: N-Methyl aspartic acid; ; ESI-TOF; CE:10 eV; [M-H]-
Name: N-Methyl aspartic acid
Name: (2R)-2-Methylaminobutanedioic acid
Name: (R)-2-(Methylamino)succinic acid
Name: NMDA
Name: Methyl aspartic acid
Name: N-Methylaspartate
Name: N-Methyl-aspartic acid
Name: N-Methyl-D-aspartate
Name: N-Methyl-D-aspartic acid
Class: unknown
Formula: C5H9NO4
Exact mass: 147.053157768
SMILES: CNC(CC(O)=O)C(O)=O
InChI: not available
Instrument: micrOTOF-Q
Instrument type: ESI-TOF
Precursor m/z: 146.046
Precursor type: [M-H]-
Base peak: 146.048
m/z	relative intensity
85.028	23
86.024	8
102.055	187
103.057	9
128.035	11
129.020	13
146.046	999
147.049	58
148.050	9
315.078	106
316.081	12
317.070	4
