Mass spectrum: Ectoine; ; ESI-TOF; CE:10 eV; [M-H]-
Name: Ectoine
Name: (S)-2-Methyl-1,4,5,6-tetrahydropyrimidine-4-carboxylic acid
Name: THP(B)
Class: unknown
Formula: C6H10N2O2
Exact mass: 142.07422756
SMILES: CC=1NCCC(N=1)C(O)=O
InChI: not available
Instrument: micrOTOF-Q
Instrument type: ESI-TOF
Precursor m/z: 143.082
Precursor type: [M-H]-
Base peak: 141.067
m/z	relative intensity
86.023	1
88.990	2
95.060	16
141.068	999
142.069	69
143.072	6
157.062	164
158.064	12
159.074	4
