Mass spectrum: Isobutyrylglycine; ; ESI-TOF; CE:10 eV; [M+H]+
Name: Isobutyrylglycine
Name: 2-(Butan-2-ylamino)acetic acid
Name: Isobutyroylglycine
Class: unknown
Formula: C6H11NO3
Exact mass: 145.07389321199997
SMILES: CC(C)C(=O)NCC(O)=O
InChI: not available
Instrument: micrOTOF-Q
Instrument type: ESI-TOF
Precursor m/z: 146.081
Precursor type: [M+H]+
Base peak: 146.082
m/z	relative intensity
76.040	37
104.070	6
124.039	6
128.069	12
146.081	999
146.960	7
147.083	71
148.085	7
149.023	14
159.967	6
168.063	105
169.067	6
181.952	18
219.021	6
224.128	5
232.154	18
246.007	8
263.011	14
264.019	12
315.115	16
335.123	11
344.069	24
345.078	46
346.081	8
347.110	6
