Mass spectrum: Methyl-b-D-galactopyranoside; MS/MS; ESI-TOF; CE:10 eV; [M-H]-
Name: Methyl-b-D-galactopyranoside
Name: Methyl b-D-galactoside
Class: unknown
Formula: C7H14O6
Exact mass: 194.07903816799998
SMILES: COC1OC(CO)C(O)C(O)C1(O)
InChI: not available
Instrument: micrOTOF-Q
Instrument type: ESI-TOF
Precursor m/z: 239.076
Precursor type: [M-H]-
Base peak: 193.073
m/z	relative intensity
101.023	218
193.070	999
