Mass spectrum: Erythritol; ; ESI-TOF; CE:10 eV; [M+H]+
Name: Erythritol
Name: Erythrol
Name: 1,2,3,4-Butanetetrol
Name: Butane-1,2,3,4-tetro
Name: Erythrite
Name: Meso-1,2,3,4-tetrahydroxybutane
Name: i-Erythritol
Name: Phycite
Name: Phycitol
Name: Meso-Erythritol
Class: unknown
Formula: C4H10O4
Exact mass: 122.05790879999999
SMILES: OCC(O)C(O)CO
InChI: not available
Instrument: micrOTOF-Q
Instrument type: ESI-TOF
Precursor m/z: 123.054
Precursor type: [M+H]+
Base peak: 123.068
m/z	relative intensity
69.032	7
87.043	92
97.076	9
104.071	8
105.054	179
106.058	8
115.039	7
123.065	999
124.069	47
125.070	10
142.039	186
142.540	17
143.081	143
144.082	23
145.047	73
150.026	303
150.528	41
151.039	197
151.540	17
152.026	45
152.524	9
211.056	52
211.559	8
212.056	15
212.963	8
269.084	76
270.085	7
298.038	87
299.046	112
300.048	16
301.046	13
