Mass spectrum: Quinicacid; MS/MS; ESI-TOF; CE:14 eV; [M+H]+
Name: Quinicacid
Name: Chinic acid,Kinic acid,quinate  ,Chinasaure,L-Quinic acid,L-Quinate,(-)-quinic acid,D-(-)-Quinic acid,D-QUINic acid
Class: unknown
Formula: C7H12O6
Exact mass: 192.06338810399998
SMILES: OC(=O)C1(O)(CC(O)C(O)C(O)C1)
InChI: not available
Instrument: micrOTOF-Q
Instrument type: ESI-TOF
Precursor m/z: 193.071
Precursor type: [M+H]+
Base peak: 111.043
m/z	relative intensity
69.036	94
83.050	310
85.029	79
87.008	64
93.033	98
95.049	658
96.052	51
97.027	41
101.060	36
111.044	999
112.047	63
115.039	40
121.028	95
129.054	686
130.058	44
139.038	414
140.040	39
147.065	338
157.049	172
