Mass spectrum: Genistein; MS/MS; ESI-TOF; CE:23 eV; [M+H]+
Name: Genistein
Name: 4',5,7-Trihydroxyisoflavone
Name: 5,7,4'-Trihydroxyisoflavone
Name: 5,7-Dihydroxy-3-(4-hydroxyphenyl)-4H-1-benzopyran-4-one
Class: unknown
Formula: C15H10O5
Exact mass: 270.05282342
SMILES: OC1=CC=C(C=C1)C2=COC=3C=C(O)C=C(O)C=3(C2(=O))
InChI: not available
Instrument: micrOTOF-Q
Instrument type: ESI-TOF
Precursor m/z: 271.062
Precursor type: [M+H]+
Base peak: 271.064
m/z	relative intensity
91.055	3
111.009	2
119.050	4
121.030	1
131.052	1
133.036	1
145.030	10
146.033	1
149.024	19
150.028	2
153.019	45
154.022	3
159.046	6
165.019	4
169.066	3
173.060	1
183.031	1
187.060	2
197.061	4
201.056	1
215.071	58
216.074	7
225.055	3
227.069	1
243.066	45
244.070	7
253.051	14
254.055	2
270.187	2
271.064	999
272.066	166
273.068	21
274.072	2
