Mass spectrum: Naringin; ; ESI-TOF; CE:10 eV; [M-H]-
Name: Naringin
Class: unknown
Formula: C27H32O14
Exact mass: 580.179205704
SMILES: CC5OC(OC4C(O)C(O)C(CO)OC4(OC=1C=C(O)C=2C(=O)CC(OC=2(C=1))C3=CC=C(O)C=C3))C(O)C(O)C5(O)
InChI: not available
Instrument: micrOTOF-Q
Instrument type: ESI-TOF
Precursor m/z: 579.171
Precursor type: [M-H]-
Base peak: 273.073
m/z	relative intensity
273.076	999
274.079	165
275.082	23
276.083	2
