Mass spectrum: o-Coumaric acid; MS/MS; ESI-TOF; CE:19 eV; [M+H]+
Name: o-Coumaric acid
Name: Trans-2-hydroxycinnamic acid
Name: 2-Coumarate
Name: 2-Coumaric acid
Name: 2-Hydroxycinnamic acid
Name: o-Coumarate
Name: (E)-o-Hydroxycinnamic acid
Name: Trans-2-Coumaric acid
Name: Trans-2-hydroxycinnamate
Name: (E)-3-(2-Hydroxyphenyl)prop-2-enoic acid
Name: Trans-o-Coumaric acid
Class: unknown
Formula: C9H8O3
Exact mass: 164.04734411599998
SMILES: OC(=O)C=CC=1C=CC=CC=1(O)
InChI: not available
Instrument: micrOTOF-Q
Instrument type: ESI-TOF
Precursor m/z: 165.055
Precursor type: [M+H]+
Base peak: 103.054
m/z	relative intensity
77.038	30
91.054	532
92.057	48
93.070	27
95.050	344
96.053	23
102.046	11
103.055	999
104.058	96
105.045	51
119.050	35
121.065	57
123.045	599
124.048	44
147.044	299
148.048	37
