Mass spectrum: 4-Phenylbutyric acid; ; ESI-TOF; CE:10 eV; [M-H]-
Name: 4-Phenylbutyric acid
Class: unknown
Formula: C10H12O2
Exact mass: 164.083729624
SMILES: O=C(O)CCCC=1C=CC=CC=1
InChI: not available
Instrument: micrOTOF-Q
Instrument type: ESI-TOF
Precursor m/z: 147.08
Precursor type: [M-H]-
Base peak: 163.077
m/z	relative intensity
163.076	999
164.080	110
165.082	10
