Mass spectrum: Myo-inositol; ; ESI-TOF; CE:10 eV; [M-H]-
Name: Myo-inositol
Name: Inositol,i-inositol  ,inositol-myo,meso-inositol,Dambose,mesoinositol  ,iso-inositol,Phaseomannitol,Phaseomannite,Mesoinosit,Mesoinosite,1,2,3,5/4,6-hexahydroxycyclohexane,,
Class: unknown
Formula: C6H12O6
Exact mass: 180.06338810399998
SMILES: OC1C(O)C(O)C(O)C(O)C1(O)
InChI: not available
Instrument: micrOTOF-Q
Instrument type: ESI-TOF
Precursor m/z: 209.03
Precursor type: [M-H]-
Base peak: 179.052
m/z	relative intensity
75.007	3
85.026	2
87.007	13
89.023	23
99.007	3
101.023	6
112.986	5
117.024	7
118.049	4
125.024	5
129.018	3
141.019	5
159.029	5
161.045	47
162.047	3
177.039	6
179.055	999
180.058	67
181.060	13
205.039	3
215.030	5
223.038	3
225.060	814
226.063	63
227.064	15
264.963	8
269.085	3
278.979	6
359.116	61
360.118	8
