Mass spectrum: p-Coumaric acid; ; ESI-TOF; CE:10 eV; [M-H]-
Name: p-Coumaric acid
Name: Para-Coumaric acid
Name: Para-Coumarate
Name: 4-Hydroxycinnamic acid
Name: p-Coumarate
Name: Para-hydroxycinnamic acid
Name: 4-Coumarate
Name: 4-Hydroxycinnamate
Name: Trans-4-hydroxycinnamate
Name: (E)-3-(4-Hydroxyphenyl)prop-2-enoic acid
Name: Trans-4-hydroxycinnamic acid
Class: unknown
Formula: C9H8O3
Exact mass: 164.04734411599998
SMILES: OC(=O)C=CC1=CC=C(O)C=C1
InChI: not available
Instrument: micrOTOF-Q
Instrument type: ESI-TOF
Precursor m/z: 131.034
Precursor type: [M-H]-
Base peak: 163.039
m/z	relative intensity
163.040	999
164.043	99
165.045	11
