Mass spectrum: Chlorogenic acid; ; ESI-TOF; CE:10 eV; [M+H]+
Name: Chlorogenic acid
Name: Chlorogenate
Name: 3-(3,4-Dihydroxycinnamoyl)quinic acid
Name: 3-Caffeoylquinic acid
Name: 3-O-Caffeoylquinic acid
Name: 5-O-(3,4-Dihydroxycinnamoyl)-L-quinic acid
Class: unknown
Formula: C16H18O9
Exact mass: 354.095082156
SMILES: O=C(C=CC1=CC=C(O)C(O)=C1)OC2CC(O)(CC(O)C2(O))C(O)=O
InChI: not available
Instrument: micrOTOF-Q
Instrument type: ESI-TOF
Precursor m/z: 163.039
Precursor type: [M+H]+
Base peak: 163.036
m/z	relative intensity
122.091	5
135.045	14
145.029	7
146.961	9
149.023	18
159.968	6
163.039	999
163.948	6
164.042	100
165.044	10
179.033	5
181.050	5
181.951	24
204.968	9
224.127	9
234.532	6
235.555	8
257.242	5
275.262	5
353.086	6
355.106	182
356.111	31
357.106	6
369.351	6
377.090	39
378.094	7
