Mass spectrum: Citraconic acid; ; ESI-TOF; CE:10 eV; [M+H]+
Name: Citraconic acid
Name: 2-Methylmaleate
Name: (2Z)-2-Methyl-2-butenedioic acid
Name: (Z)-2-Methyl-2-butenedioate
Name: (Z)-2-Methyl-2-butenedioic acid
Name: Methylmaleate
Name: Methylmaleic acid
Name: Citraconate
Class: unknown
Formula: C5H6O4
Exact mass: 130.026608672
SMILES: CC(=CC(O)=O)C(O)=O
InChI: not available
Instrument: micrOTOF-Q
Instrument type: ESI-TOF
Precursor m/z: 131.034
Precursor type: [M+H]+
Base peak: 131.033
m/z	relative intensity
131.034	999
132.037	56
133.038	10
