Mass spectrum: Ribitol; ; ESI-TOF; CE:10 eV; [M+H]+
Name: Ribitol
Name: Adonitol,meso-ribitol,
Class: unknown
Formula: C5H12O5
Exact mass: 152.06847348399998
SMILES: OCC(O)C(O)C(O)CO
InChI: not available
Instrument: micrOTOF-Q
Instrument type: ESI-TOF
Precursor m/z: 153.076
Precursor type: [M+H]+
Base peak: 153.074
m/z	relative intensity
69.035	4
99.044	41
100.047	2
117.054	35
118.060	2
135.064	94
136.068	6
149.021	6
150.031	1
152.607	2
153.076	999
154.079	55
155.080	12
162.029	1
164.062	14
164.562	4
165.060	3
166.086	15
167.088	1
171.032	2
172.051	38
172.551	5
173.053	1
174.046	1
175.057	98
176.062	6
177.059	1
