Mass spectrum: 5'-Deoxyadenosine; ; ESI-TOF; CE:10 eV; [M+H]+
Name: 5'-Deoxyadenosine
Name: 5-Deoxyadenosine
Name: 5'-Deoxy-Adenosine
Name: CH3Ado
Class: unknown
Formula: C10H13N5O3
Exact mass: 251.101839276
SMILES: CC1OC(C(O)C1(O))N3C=NC=2C(N)=NC=NC=23
InChI: not available
Instrument: micrOTOF-Q
Instrument type: ESI-TOF
Precursor m/z: 250.094
Precursor type: [M+H]+
Base peak: 252.108
m/z	relative intensity
252.109	999
253.112	129
254.114	14
255.116	1
