Mass spectrum: Diglycolic acid; ; ESI-TOF; CE:10 eV; [M-H]-
Name: Diglycolic acid
Name: 2,2-Oxydiacetic acid
Name: 2-(Carboxymethoxy)acetic acid
Name: 3-Oxapentanedioic acid
Name: Anhydroglycolic acid
Name: Bis(carboxymethyl)ether
Name: Oxodiacetic acid
Name: Oxybisacetic acid
Name: Oxydiacetic acid
Name: Oxydiethanolic acid
Class: unknown
Formula: C4H6O5
Exact mass: 134.02152329199998
SMILES: OC(=O)COCC(O)=O
InChI: not available
Instrument: micrOTOF-Q
Instrument type: ESI-TOF
Precursor m/z: 133.015
Precursor type: [M-H]-
Base peak: 133.014
m/z	relative intensity
133.014	999
134.018	46
135.019	11
