Mass spectrum: (DL) isocitric acid; MS/MS; ESI-TOF; CE:-19 eV; [M-H]-
Name: (DL) isocitric acid
Name: 1-Hydroxytricarballylic acid
Name: Isocitrate
Name: 1-Hydroxypropane-1,2,3-tricarboxylic acid
Name: D,L-Isocitric acid
Class: unknown
Formula: C6H8O7
Exact mass: 192.027002596
SMILES: OC(=O)CC(C(O)=O)C(O)C(O)=O
InChI: not available
Instrument: micrOTOF-Q
Instrument type: ESI-TOF
Precursor m/z: 191.021
Precursor type: [M-H]-
Base peak: 111.009
m/z	relative intensity
73.025	171
74.029	6
83.012	19
85.028	444
86.032	18
99.008	72
100.011	3
101.023	64
102.027	3
103.039	34
111.009	999
112.012	55
113.013	8
117.019	360
118.023	17
119.023	4
129.019	125
130.022	7
147.029	9
154.998	145
156.002	10
173.009	58
174.012	4
191.019	25
