Mass spectrum: Ribitol; MS/MS; ESI-TOF; CE:10 eV; [M-H]-
Name: Ribitol
Name: Adonitol,meso-ribitol,
Class: unknown
Formula: C5H12O5
Exact mass: 152.06847348399998
SMILES: OCC(O)C(O)C(O)CO
InChI: not available
Instrument: micrOTOF-Q
Instrument type: ESI-TOF
Precursor m/z: 151.061
Precursor type: [M-H]-
Base peak: 101.022
m/z	relative intensity
71.013	255
83.012	72
85.028	78
87.007	27
89.023	679
90.027	27
101.023	999
102.027	52
103.036	29
113.023	44
119.034	195
131.035	36
133.048	52
149.045	38
151.060	418
152.061	31
