Mass spectrum: 5-Methylcytidine; ; ESI-TOF; CE:10 eV; [M+H]+
Name: 5-Methylcytidine
Name: 5-Methyl-cytidine
Class: unknown
Formula: C10H15N3O5
Exact mass: 257.10117058000003
SMILES: CC1=CN(C(=O)N=C1(N))C2OC(CO)C(O)C2(O)
InChI: not available
Instrument: micrOTOF-Q
Instrument type: ESI-TOF
Precursor m/z: 258.11
Precursor type: [M+H]+
Base peak: 126.065
m/z	relative intensity
108.056	1
109.040	4
125.688	2
126.067	999
127.069	64
128.071	4
146.961	1
149.023	2
181.952	2
257.282	1
258.110	486
259.112	56
260.115	7
