Mass spectrum: Ibuprofen; ; ESI-TOF; CE:10 eV; [M-H]-
Name: Ibuprofen
Name: 2-[4-(2-Methylpropyl)phenyl]propanoic acid
Name: a-Methyl-4-(isobutyl)phenylacetic acid
Class: unknown
Formula: C13H18O2
Exact mass: 206.130679816
SMILES: CC(C)CC1=CC=C(C=C1)C(C)C(O)=O
InChI: not available
Instrument: micrOTOF-Q
Instrument type: ESI-TOF
Precursor m/z: 205.123
Precursor type: [M-H]-
Base peak: 205.119
m/z	relative intensity
205.123	999
206.127	142
207.130	13
