Mass spectrum: Cinnamic acid ethyl ester; ; ESI-TOF; CE:10 eV; [M+H]+
Name: Cinnamic acid ethyl ester
Class: unknown
Formula: C11H12O2
Exact mass: 176.083729624
SMILES: CCOC(=O)C=CC1=CC=CC=C1
InChI: not available
Instrument: micrOTOF-Q
Instrument type: ESI-TOF
Precursor m/z: 203.082
Precursor type: [M+H]+
Base peak: 131.046
m/z	relative intensity
101.003	8
103.054	84
104.059	7
105.034	21
130.702	4
131.049	999
132.053	88
133.056	4
149.060	616
150.063	61
167.071	7
176.590	7
177.091	946
178.094	114
179.098	8
183.080	149
184.083	18
199.072	144
200.075	13
205.062	22
217.083	69
218.085	8
