Mass spectrum: Lipoicacid; MS/MS; ESI-TOF; CE:10 eV; [M+H]+
Name: Lipoicacid
Name: (Oct)-1,2-Dithiolane-3-pentanoic acid,6,8-Dithiooctanoic acid,DL-6,8-Thioctic acid,Lipoate,alpha-Lipoic acid,Thioctic acid,5-[(3S)-Dithiolan-3-yl]pentanoic acid
Class: unknown
Formula: C8H14O2S2
Exact mass: 206.043521688
SMILES: OC(=O)CCCCC1CCSS1
InChI: not available
Instrument: micrOTOF-Q
Instrument type: ESI-TOF
Precursor m/z: 189.041
Precursor type: [M+H]+
Base peak: 101.043
m/z	relative intensity
67.057	18
73.012	22
77.039	9
78.049	9
78.968	17
79.056	65
80.061	9
81.070	45
85.011	84
87.026	44
91.054	68
92.058	8
93.070	353
94.073	31
95.085	230
96.088	19
97.010	10
99.026	34
101.042	999
102.045	71
102.967	15
103.040	44
104.983	350
105.068	128
105.985	18
106.077	102
106.979	33
107.084	44
109.011	10
110.018	29
111.026	51
113.038	9
115.057	54
118.999	34
123.080	39
125.041	22
127.057	934
128.060	80
128.983	8
129.054	42
135.026	27
137.041	146
138.049	141
139.048	18
140.045	7
142.997	11
145.014	14
147.028	31
155.053	12
161.045	331
162.048	34
163.042	38
171.029	112
172.033	13
173.025	11
189.039	17
