Mass spectrum: Diglycolic acid; MS/MS; ESI-TOF; CE:8 eV; [M+H]+
Name: Diglycolic acid
Name: 2,2-Oxydiacetic acid
Name: 2-(Carboxymethoxy)acetic acid
Name: 3-Oxapentanedioic acid
Name: Anhydroglycolic acid
Name: Bis(carboxymethyl)ether
Name: Oxodiacetic acid
Name: Oxybisacetic acid
Name: Oxydiacetic acid
Name: Oxydiethanolic acid
Class: unknown
Formula: C4H6O5
Exact mass: 134.02152329199998
SMILES: OC(=O)COCC(O)=O
InChI: not available
Instrument: micrOTOF-Q
Instrument type: ESI-TOF
Precursor m/z: 135.029
Precursor type: [M+H]+
Base peak: 89.0204
m/z	relative intensity
77.022	52
89.023	999
90.028	40
107.033	43
135.029	61
