Mass spectrum: Inosine; ; ESI-TOF; CE:10 eV; [M-H]-
Name: Inosine
Name: Hypoxanthine 9-b-D-ribofuranoside,(-)-inosine,9-[(2R,3R,4S,5S)-3,4-dihydroxy-5-(hydroxymethyl)oxolan-2-yl]-3H-purin-6-one,,
Class: unknown
Formula: C10H12N4O5
Exact mass: 268.08076948400003
SMILES: OCC1OC(C(O)C1(O))N3C=NC=2C(=O)NC=NC=23
InChI: not available
Instrument: micrOTOF-Q
Instrument type: ESI-TOF
Precursor m/z: 137.046
Precursor type: [M-H]-
Base peak: 267.076
m/z	relative intensity
146.938	9
267.073	999
268.076	118
269.077	16
413.002	9
535.154	114
536.156	28
