Mass spectrum: 1-Methyladenosine; ; ESI-TOF; CE:10 eV; [M+H]+
Name: 1-Methyladenosine
Name: 1-Methyl-adenosine
Name: N,6-Didehydro-1,6-dihydro-1-methyladenosine
Name: N1-Methyladenosine
Name: (2R,3S,4R,5R)-2-(Hydroxymethyl)-5-(6-imino-1-methylpurin-9-yl)oxolane-3,4-diol
Name: N,6-Didehydro-1,6-dihydro-1-methyl-Adenosine
Class: unknown
Formula: C11H15N5O4
Exact mass: 281.11240396
SMILES: CN3C=NC1=C(N=CN1C2OC(CO)C(O)C2(O))C3(=N)
InChI: not available
Instrument: micrOTOF-Q
Instrument type: ESI-TOF
Precursor m/z: 280.105
Precursor type: [M+H]+
Base peak: 282.121
m/z	relative intensity
125.0036	2
144.0795	3
146.9603	3
149.0236	7
150.0775	193
151.0787	15
159.9694	3
162.0928	2
163.9406	2
181.9516	8
185.0442	3
204.9707	2
224.1278	3
281.2104	2
282.1220	999
283.1242	121
284.1268	15
285.1265	2
