Mass spectrum: N-Acetylisatin; ; ESI-TOF; CE:10 eV; [M-H]-
Name: N-Acetylisatin
Name: 1-Acetylisatin
Name: Acetylisatin
Name: 1-Acetyl-indole-2,3-dione
Name: D: 11321
Class: unknown
Formula: C10H7NO3
Exact mass: 189.042593084
SMILES: CC(=O)N2C(=O)C(=O)C=1C=CC=CC=12
InChI: not available
Instrument: micrOTOF-Q
Instrument type: ESI-TOF
Precursor m/z: 273.243
Precursor type: [M-H]-
Base peak: 162.058
m/z	relative intensity
92.050	35
93.054	2
134.061	424
135.064	35
136.052	2
146.939	2
162.057	999
163.059	95
164.061	8
178.051	15
179.054	2
206.047	957
207.049	112
208.053	13
