Mass spectrum: Quinicacid; ; ESI-TOF; CE:10 eV; [M-H]-
Name: Quinicacid
Name: Chinic acid,Kinic acid,quinate  ,Chinasaure,L-Quinic acid,L-Quinate,(-)-quinic acid,D-(-)-Quinic acid,D-QUINic acid
Class: unknown
Formula: C7H12O6
Exact mass: 192.06338810399998
SMILES: OC(=O)C1(O)(CC(O)C(O)C(O)C1)
InChI: not available
Instrument: micrOTOF-Q
Instrument type: ESI-TOF
Precursor m/z: 208.098
Precursor type: [M-H]-
Base peak: 191.052
m/z	relative intensity
88.986	3
146.941	3
191.056	999
192.059	76
193.059	14
290.976	2
365.105	12
366.108	3
383.116	33
384.120	5
