Mass spectrum: (DL) isocitric acid; ; ESI-TOF; CE:10 eV; [M-H]-
Name: (DL) isocitric acid
Name: 1-Hydroxytricarballylic acid
Name: Isocitrate
Name: 1-Hydroxypropane-1,2,3-tricarboxylic acid
Name: D,L-Isocitric acid
Class: unknown
Formula: C6H8O7
Exact mass: 192.027002596
SMILES: OC(=O)CC(C(O)=O)C(O)C(O)=O
InChI: not available
Instrument: micrOTOF-Q
Instrument type: ESI-TOF
Precursor m/z: 179.055
Precursor type: [M-H]-
Base peak: 191.019
m/z	relative intensity
191.020	999
192.023	68
193.024	16
194.027	1
