Mass spectrum: 4-Hydroxyhippuric acid; ; ESI-TOF; CE:10 eV; [M+H]+
Name: 4-Hydroxyhippuric acid
Name: 4-Hydroxybenzoylglycine
Name: N-(4-Hydroxybenzoyl)glycine
Name: p-Hydroxyhippuric acid
Class: unknown
Formula: C9H9NO4
Exact mass: 195.053157768
SMILES: O=C(O)CNC(=O)C=1C=CC(O)=CC=1
InChI: not available
Instrument: micrOTOF-Q
Instrument type: ESI-TOF
Precursor m/z: 196.061
Precursor type: [M+H]+
Base peak: 196.056
m/z	relative intensity
111.045	4
113.965	2
120.665	2
121.029	881
122.032	65
123.035	5
128.951	4
144.081	4
145.930	2
146.961	7
149.024	6
150.056	2
152.068	4
153.957	2
159.969	3
161.064	5
162.087	3
163.939	6
168.065	2
178.052	5
181.950	18
186.958	3
188.993	2
195.441	3
196.061	999
197.063	100
198.064	12
