Mass spectrum: Lactulose; MS/MS; ESI-TOF; CE:10 eV; [M+H]+
Name: Lactulose
Name: 4-O-(Z)--D-Galactopyranosyl-D-fructofuranose,4-O-(Z)--D-Galactopyranosyl-D-fructose
Name: (2S,3R,4S,5R,6R)-2-[(2R,3S,4S,5R)-4,5-Dihydroxy-2,5-bis(hydroxymethyl)oxolan-3-yl]oxy-6-(hydroxymethyl)oxane-3,4,5-triol
Class: unknown
Formula: C12H22O11
Exact mass: 342.116211524
SMILES: OCC2OC(OC1C(CO)OC(O)(CO)C1(O))C(O)C(O)C2(O)
InChI: not available
Instrument: micrOTOF-Q
Instrument type: ESI-TOF
Precursor m/z: 325.112
Precursor type: [M+H]+
Base peak: 163.056
m/z	relative intensity
85.029	154
97.029	53
127.039	215
145.049	602
146.052	44
163.059	999
164.063	67
289.090	47
325.115	81
