Mass spectrum: Lipoamide; ; ESI-TOF; CE:10 eV; [M+H]+
Name: Lipoamide
Name: 5-(Dithiolan-3-yl)pentanamide
Name: Thioctic acid amide,Thioctamide,Vitamin N,alpha-lipoic acid amide,a-Lipoic amide,DL-a-Lipoamide,DL-6,8-Thioctic acid amide,a-Lipoamide
Class: unknown
Formula: C8H15NOS2
Exact mass: 205.0595061
SMILES: NC(=O)CCCCC1CCSS1
InChI: not available
Instrument: micrOTOF-Q
Instrument type: ESI-TOF
Precursor m/z: 118.051
Precursor type: [M+H]+
Base peak: 189.04
m/z	relative intensity
93.069	4
95.085	6
101.042	81
102.045	5
103.038	3
104.982	9
105.069	5
106.076	2
107.085	2
123.080	7
127.057	39
128.060	3
129.053	2
137.041	13
138.048	7
140.106	6
147.028	2
149.022	1
155.052	6
161.045	369
162.048	31
163.041	33
164.046	2
171.029	101
172.034	10
173.026	10
177.039	1
188.446	1
189.042	999
190.043	109
191.037	101
192.039	9
193.034	3
205.056	8
205.415	1
206.068	717
207.069	80
208.063	67
209.065	6
210.061	2
222.062	11
223.066	1
225.042	2
228.049	362
229.052	33
230.045	30
231.047	3
232.040	1
233.029	8
233.529	2
234.030	2
237.108	2
244.043	39
245.045	4
246.048	5
