Mass spectrum: Isoferulicacid; MS/MS; ESI-TOF; CE:10 eV; [M-H]-
Name: Isoferulicacid
Name: Hesperetic acid,Hespertitinic acid,3-hydroxy-4-methoxycinnamic acid  ,Cinnamic acid, 3-hydroxy-4-methoxy-,2-propenoic acid, 3-(3-hydroxy-4-methoxyphenyl)-,3-hydroxy-4-methoxycinnamic acid, predominantly trans ,
Class: unknown
Formula: C10H10O4
Exact mass: 194.0579088
SMILES: COC=1C=CC(C=CC(=O)O)=CC=1(O)
InChI: not available
Instrument: micrOTOF-Q
Instrument type: ESI-TOF
Precursor m/z: 193.051
Precursor type: [M-H]-
Base peak: 134.035
m/z	relative intensity
106.042	34
111.009	14
121.029	37
133.029	120
134.037	999
135.040	86
137.024	251
138.028	18
139.039	91
149.026	15
150.031	32
178.027	433
179.030	42
