Mass spectrum: 5-Aminopentanoic acid; ; ESI-TOF; CE:10 eV; [M+H]+
Name: 5-Aminopentanoic acid
Name: 5-Aminopentanoate
Name: 5-Aminopentanoic acid
Name: 5-Aminovaleric acid
Name: Delta-amino-N-valerate
Name: Delta-amino-N-valeric acid
Name: Delta-aminovalerate
Name: 5-Aminovalerate
Name: Delta-aminovaleric acid
Class: unknown
Formula: C5H11NO2
Exact mass: 117.078978592
SMILES: NCCCCC(O)=O
InChI: not available
Instrument: micrOTOF-Q
Instrument type: ESI-TOF
Precursor m/z: 118.087
Precursor type: [M+H]+
Base peak: 118.09
m/z	relative intensity
72.080	10
82.064	12
83.048	67
100.076	325
101.060	744
102.063	42
115.076	10
118.087	999
119.089	67
120.091	7
140.069	22
150.112	71
172.134	45
217.156	35
218.984	68
219.986	18
220.983	22
234.963	28
235.166	129
236.169	16
242.002	56
243.004	17
243.999	16
257.136	116
257.979	11
258.135	32
259.134	20
275.147	172
276.149	41
277.145	27
374.217	124
375.219	37
376.215	26
