Mass spectrum: 1,2,4-Trihydroxybenzol; ; ESI-TOF; CE:10 eV; [M-H]-
Name: 1,2,4-Trihydroxybenzol
Name: Hydroxyhydroquinone
Name: 1,2,4-Benzenetriol,
Name: 1,2,4-Trihydroxybenzene
Name: Hydroxyquinol
Class: unknown
Formula: C6H6O3
Exact mass: 126.03169405199999
SMILES: OC1=CC=C(O)C(O)=C1
InChI: not available
Instrument: micrOTOF-Q
Instrument type: ESI-TOF
Precursor m/z: 127.038
Precursor type: [M-H]-
Base peak: 125.021
m/z	relative intensity
69.033	4
79.017	10
81.033	5
83.012	12
95.011	8
97.028	33
98.032	2
107.012	12
108.019	3
123.008	25
124.016	30
125.024	999
126.027	66
127.029	7
