Mass spectrum: Lipoicacid; ; ESI-TOF; CE:10 eV; [M+H]+
Name: Lipoicacid
Name: (Oct)-1,2-Dithiolane-3-pentanoic acid,6,8-Dithiooctanoic acid,DL-6,8-Thioctic acid,Lipoate,alpha-Lipoic acid,Thioctic acid,5-[(3S)-Dithiolan-3-yl]pentanoic acid
Class: unknown
Formula: C8H14O2S2
Exact mass: 206.043521688
SMILES: OC(=O)CCCCC1CCSS1
InChI: not available
Instrument: micrOTOF-Q
Instrument type: ESI-TOF
Precursor m/z: 207.051
Precursor type: [M+H]+
Base peak: 189.04
m/z	relative intensity
93.069	5
95.085	9
101.041	153
102.045	10
103.039	7
104.982	15
105.070	7
106.077	3
107.084	3
122.094	5
123.081	16
124.084	4
127.057	64
128.060	7
137.041	20
138.048	13
141.090	5
149.022	10
155.052	8
161.045	631
162.047	54
163.042	62
164.045	5
171.029	170
172.032	18
173.033	17
177.041	37
178.042	3
181.951	7
187.026	3
188.034	3
189.041	999
190.043	91
191.036	86
192.040	8
193.034	3
205.035	45
206.043	64
207.048	33
208.044	9
223.046	49
224.053	6
224.120	4
225.044	5
229.033	727
230.036	68
231.030	59
232.034	7
245.029	307
246.031	33
247.031	38
248.034	4
251.015	20
