Mass spectrum: 5-Methyltetrahydrofolic acid; ; ESI-TOF; CE:10 eV; [M-H]-
Name: 5-Methyltetrahydrofolic acid
Name: 5-Methyl-5,6,7,8-tetrahydropteroyl-L-glutamic acid Disodium salt
Name: 5-Methyltetrahydrofolate
Class: unknown
Formula: C20H25N7O6
Exact mass: 459.18663152
SMILES: CN3C(CNC=1C=CC(=CC=1)C(=O)NC(CCC(O)=O)C(O)=O)CNC=2N=C(N)NC(=O)C=23
InChI: not available
Instrument: micrOTOF-Q
Instrument type: ESI-TOF
Precursor m/z: 460.192
Precursor type: [M-H]-
Base peak: 458.174
m/z	relative intensity
458.179	999
459.182	247
460.184	42
461.187	5
