Mass spectrum: Arbutin; ; ESI-TOF; CE:10 eV; [M-H]-
Name: Arbutin
Name: Ursin
Name: Arbutoside
Name: Hydroquinone-beta-D-glucopyranoside
Name: Hydroquinone-O-beta-D-glucopyranoside
Name: p-Arbutin
Name: p-Hydroxyphenyl-beta-D-glucopyranoside
Name: Uvasol
Name: (2R,3S,4S,5R,6S)-2-(Hydroxymethyl)-6-(4-hydroxyphenoxy)oxane-3,4,5-triol
Name: p-Hydroxyphenyl-beta-D-glucoside
Class: unknown
Formula: C12H16O7
Exact mass: 272.089602852
SMILES: OCC2OC(OC1=CC=C(O)C=C1)C(O)C(O)C2(O)
InChI: not available
Instrument: micrOTOF-Q
Instrument type: ESI-TOF
Precursor m/z: 146.046
Precursor type: [M-H]-
Base peak: 271.083
m/z	relative intensity
71.0120	2
85.0290	1
89.0158	4
99.0089	1
101.0239	8
108.0209	14
109.0286	23
110.0328	2
112.9869	20
143.0340	4
146.9442	1
151.0400	12
159.0301	4
161.0457	116
162.0484	8
163.0420	6
179.0550	2
205.0354	2
271.0823	999
272.0849	120
273.0861	19
274.0912	2
317.0880	839
318.0908	108
319.0921	22
320.0970	2
