Mass spectrum: Hexanoylglycine; MS/MS; ESI-TOF; CE:19 eV; [M+H]+
Name: Hexanoylglycine
Name: 2-(Hexanoylamino)acetic acid
Name: N-(1-Oxohexyl)-glycine
Name: N-Caproylglycine
Class: unknown
Formula: C8H15NO3
Exact mass: 173.10519334
SMILES: CCCCCC(=O)NCC(O)=O
InChI: not available
Instrument: micrOTOF-Q
Instrument type: ESI-TOF
Precursor m/z: 174.113
Precursor type: [M+H]+
Base peak: 76.0398
m/z	relative intensity
71.084	411
72.090	39
76.038	999
77.038	39
81.071	39
99.080	677
100.083	56
