Mass spectrum: 5-Methyltetrahydrofolic acid; ; ESI-TOF; CE:10 eV; [M+H]+
Name: 5-Methyltetrahydrofolic acid
Name: 5-Methyl-5,6,7,8-tetrahydropteroyl-L-glutamic acid Disodium salt
Name: 5-Methyltetrahydrofolate
Class: unknown
Formula: C20H25N7O6
Exact mass: 459.18663152
SMILES: CN3C(CNC=1C=CC(=CC=1)C(=O)NC(CCC(O)=O)C(O)=O)CNC=2N=C(N)NC(=O)C=23
InChI: not available
Instrument: micrOTOF-Q
Instrument type: ESI-TOF
Precursor m/z: 460.192
Precursor type: [M+H]+
Base peak: 460.198
m/z	relative intensity
460.194	999
461.197	247
462.199	42
463.201	5
