Mass spectrum: 2-Hydroxypalmitic acid; MS/MS; ESI-TOF; CE:15 eV; [M+H]+
Name: 2-Hydroxypalmitic acid
Name: Alpha-hydroxypalmitic acid
Name: 2-Hydroxyhexadecanoate
Name: 2-Hydroxyhexadecanoic acid
Name: 2-Hydroxy-hexadecanoic acid
Name: 2-Hydroxy palmitic acid
Name: DL-a-hydroxypalmitic acid
Name: DL-alpha-hydroxypalmitic acid
Class: unknown
Formula: C16H32O3
Exact mass: 272.23514488399996
SMILES: CCCCCCCCCCCCCCC(O)C(O)=O
InChI: not available
Instrument: micrOTOF-Q
Instrument type: ESI-TOF
Precursor m/z: 273.243
Precursor type: [M+H]+
Base peak: 97.1009
m/z	relative intensity
69.069	114
83.085	751
84.088	52
85.100	108
97.101	999
98.104	76
111.117	584
125.132	220
139.147	61
