Mass spectrum: Diglycolic acid; ; ESI-TOF; CE:10 eV; [M+H]+
Name: Diglycolic acid
Name: 2,2-Oxydiacetic acid
Name: 2-(Carboxymethoxy)acetic acid
Name: 3-Oxapentanedioic acid
Name: Anhydroglycolic acid
Name: Bis(carboxymethyl)ether
Name: Oxodiacetic acid
Name: Oxybisacetic acid
Name: Oxydiacetic acid
Name: Oxydiethanolic acid
Class: unknown
Formula: C4H6O5
Exact mass: 134.021523292
SMILES: OC(=O)COCC(O)=O
InChI: not available
Instrument: micrOTOF-Q
Instrument type: ESI-TOF
Precursor m/z: 133.015
Precursor type: [M+H]+
Base peak: 135.029
m/z	relative intensity
77.020	3
89.023	97
90.028	3
107.034	4
117.017	3
119.053	2
130.050	5
132.100	3
135.029	999
136.032	43
137.032	14
157.011	47
158.014	2
