Mass spectrum: 2-Furoylglycine; MS/MS; ESI-TOF; CE:19 eV; [M+H]+
Name: 2-Furoylglycine
Name: 2-(Furan-2-carbonylamino)acetic acid
Name: (2-Furoylamino)acetic acid
Name: Furfuroylglycine
Name: Furoylglycine
Name: N-(2-Furoyl)glycine
Name: Furoilglicina
Name: Pyromucuric acid
Name: N-2-Furoyl-glycine
Class: unknown
Formula: C7H7NO4
Exact mass: 169.03750770399998
SMILES: OC(=O)CNC(=O)C1=CC=CO1
InChI: not available
Instrument: micrOTOF-Q
Instrument type: ESI-TOF
Precursor m/z: 170.045
Precursor type: [M+H]+
Base peak: 95.0149
m/z	relative intensity
95.013	999
96.016	57
124.040	54
