Mass spectrum: 6-Methylnicotinic acid; MS/MS; ESI-TOF; CE:-18 eV; [M-H]-
Name: 6-Methylnicotinic acid
Name: 6-Methylpyridine-3-carboxylic acid
Class: unknown
Formula: C7H7NO2
Exact mass: 137.047678464
SMILES: CC1=CC=C(C=N1)C(O)=O
InChI: not available
Instrument: micrOTOF-Q
Instrument type: ESI-TOF
Precursor m/z: 136.04
Precursor type: [M-H]-
Base peak: 92.0481
m/z	relative intensity
92.049	999
93.052	74
136.040	34
