Mass spectrum: Lipoicacid; MS/MS; ESI-TOF; CE:10 eV; [M+H]+
Name: Lipoicacid
Name: (Oct)-1,2-Dithiolane-3-pentanoic acid,6,8-Dithiooctanoic acid,DL-6,8-Thioctic acid,Lipoate,alpha-Lipoic acid,Thioctic acid,5-[(3S)-Dithiolan-3-yl]pentanoic acid
Class: unknown
Formula: C8H14O2S2
Exact mass: 206.043521688
SMILES: OC(=O)CCCCC1CCSS1
InChI: not available
Instrument: micrOTOF-Q
Instrument type: ESI-TOF
Precursor m/z: 207.051
Precursor type: [M+H]+
Base peak: 101.042
m/z	relative intensity
78.968	32
79.056	224
81.071	953
82.074	66
87.029	39
91.055	49
93.070	259
95.085	936
96.088	73
99.079	87
101.042	999
102.045	51
103.040	43
104.983	218
105.069	90
106.076	34
111.026	48
113.042	245
121.065	76
123.080	646
124.085	73
125.041	47
127.057	582
128.060	51
137.041	126
138.049	65
141.090	47
145.014	47
155.053	178
161.045	320
163.043	34
171.030	125
173.060	62
177.041	81
189.040	58
