Mass spectrum: Maleimide; ; ESI-TOF; CE:10 eV; [M-H]-
Name: Maleimide
Name: 2,5-Pyrroledione
Class: unknown
Formula: C4H3NO2
Exact mass: 97.016378336
SMILES: O=C1C=CC(=O)N1
InChI: not available
Instrument: micrOTOF-Q
Instrument type: ESI-TOF
Precursor m/z: 96.008
Precursor type: [M-H]-
Base peak: 115.002
m/z	relative intensity
71.013	2
96.008	500
97.011	24
98.018	5
112.003	5
114.020	3
115.004	999
116.007	42
117.008	8
