Mass spectrum: Isocaproic acid; ; ESI-TOF; CE:10 eV; [M-H]-
Name: Isocaproic acid
Name: 3-Methylbutane-1-carboxylic acid
Name: 4-Methylpentanoic acid
Name: 4-Methyl-pentanoic acid
Name: 4-Methylvaleric acid
Name: 4-Methyl-Valeric acid
Name: Isobutylacetic acid
Name: Isohexanoic acid
Class: unknown
Formula: C6H12O2
Exact mass: 116.083729624
SMILES: CC(C)CCC(O)=O
InChI: not available
Instrument: micrOTOF-Q
Instrument type: ESI-TOF
Precursor m/z: 115.076
Precursor type: [M-H]-
Base peak: 115.079
m/z	relative intensity
112.985	13
115.076	999
116.080	67
117.081	6
253.141	193
254.144	26
255.144	3
