Mass spectrum: Isonicotinicacid; ; ESI-TOF; CE:10 eV; [M+H]+
Name: Isonicotinicacid
Name: 4-Picolinic acid,pyridine-4-carboxylic acid
Class: unknown
Formula: C6H5NO2
Exact mass: 123.0320284
SMILES: OC(=O)C=1C=CN=CC=1
InChI: not available
Instrument: micrOTOF-Q
Instrument type: ESI-TOF
Precursor m/z: 780.481
Precursor type: [M+H]+
Base peak: 124.036
m/z	relative intensity
80.050	28
96.044	45
97.047	3
124.040	999
125.042	72
126.044	6
