Mass spectrum: Phenylethylamine; ; ESI-TOF; CE:10 eV; [M+H]+
Name: Phenylethylamine
Name: 2-Phenethylamine
Name: 2-Phenylethylamine
Name: Benzeneethanamine
Name: Beta-aminoethylbenzene
Name: Beta-phenylethylamine
Name: Phenethylamine
Class: unknown
Formula: C8H11N
Exact mass: 121.08914935199999
SMILES: NCCC=1C=CC=CC=1
InChI: not available
Instrument: micrOTOF-Q
Instrument type: ESI-TOF
Precursor m/z: 115.076
Precursor type: [M+H]+
Base peak: 105.068
m/z	relative intensity
77.038	36
78.043	3
79.053	125
80.057	9
81.034	2
95.049	64
96.053	4
102.046	8
103.054	210
104.057	21
104.762	2
105.070	999
106.073	93
107.076	4
122.096	274
123.099	24
