Mass spectrum: 5-Hydroxymethylfurfural; ; ESI-TOF; CE:10 eV; [M+H]+
Name: 5-Hydroxymethylfurfural
Name: 5-Oxymethylfurfurole
Name: 2-Hydroxymethyl-5-furfural
Name: 5-(Hyddroxymethyl)furfurole
Name: 5-(Hydroxymethyl)-2-furfural
Name: 5-(Hydroxymethyl)furfural
Name: 5-Hydroxymethyl-2-furaldehyde
Name: 5-Hydroxymethylfuraldehyde
Name: HMF
Name: Hydroxymethylfurfural
Name: Hydroxymethylfurfuraldehyde
Name: Hydroxymethylfurfurole
Class: unknown
Formula: C6H6O3
Exact mass: 126.03169405199999
SMILES: O=CC1=CC=C(CO)O1
InChI: not available
Instrument: micrOTOF-Q
Instrument type: ESI-TOF
Precursor m/z: 127.04
Precursor type: [M+H]+
Base peak: 127.039
m/z	relative intensity
127.039	999
128.042	67
129.044	8
