Mass spectrum: 1,2,4-Trihydroxybenzol; MS/MS; ESI-TOF; CE:17 eV; [M+H]+
Name: 1,2,4-Trihydroxybenzol
Name: Hydroxyhydroquinone
Name: 1,2,4-Benzenetriol,
Name: 1,2,4-Trihydroxybenzene
Name: Hydroxyquinol
Class: unknown
Formula: C6H6O3
Exact mass: 126.03169405199999
SMILES: OC1=CC=C(O)C(O)=C1
InChI: not available
Instrument: micrOTOF-Q
Instrument type: ESI-TOF
Precursor m/z: 127.038
Precursor type: [M+H]+
Base peak: 109.029
m/z	relative intensity
80.025	16
81.033	552
82.035	34
97.028	87
98.037	14
108.019	18
109.028	999
110.031	67
125.023	17
126.031	296
127.038	113
128.041	8
