Mass spectrum: Gentisic acid; ; ESI-TOF; CE:10 eV; [M+H]+
Name: Gentisic acid
Name: 2,5-Dihydroxybenzoate
Name: 2,5-Dioxybenzoate
Name: 2,5-Dioxybenzoic acid
Name: 5-Hydroxysalicylic acid
Name: Carboxyhydroquinone
Name: Gentisate
Name: Hydroquinonecarboxylic acid
Class: unknown
Formula: C7H6O4
Exact mass: 154.026608672
SMILES: OC1=CC=C(O)C(=C1)C(O)=O
InChI: not available
Instrument: micrOTOF-Q
Instrument type: ESI-TOF
Precursor m/z: 169.015
Precursor type: [M+H]+
Base peak: 137.023
m/z	relative intensity
81.033	23
96.021	6
105.034	7
109.029	11
111.044	28
127.039	15
137.024	999
138.027	72
139.029	10
149.023	18
153.018	8
154.027	9
155.034	472
156.038	39
157.039	6
201.056	135
202.055	22
203.055	7
361.976	92
362.981	28
