Mass spectrum: 3-(2,4-Dihydroxyphenyl)propionic acid; MS/MS; ESI-TOF; CE:-19 eV; [M-H]-
Name: 3-(2,4-Dihydroxyphenyl)propionic acid
Name: 2,4-Dihydroxy-benzenepropanoic acid
Name: 2,4-Dihydroxyhydrocinnamic acid
Name: Hydroumbellic acid
Class: unknown
Formula: C9H10O4
Exact mass: 182.0579088
SMILES: OC(=O)CCC=1C=CC(O)=CC=1(O)
InChI: not available
Instrument: micrOTOF-Q
Instrument type: ESI-TOF
Precursor m/z: 181.051
Precursor type: [M-H]-
Base peak: 137.057
m/z	relative intensity
93.069	111
95.049	61
108.021	15
109.029	139
110.033	10
121.029	222
122.034	24
135.045	16
137.061	999
138.064	88
163.039	66
181.050	30
