Mass spectrum: o-Coumaric acid; ; ESI-TOF; CE:10 eV; [M-H]-
Name: o-Coumaric acid
Name: Trans-2-hydroxycinnamic acid
Name: 2-Coumarate
Name: 2-Coumaric acid
Name: 2-Hydroxycinnamic acid
Name: o-Coumarate
Name: (E)-o-Hydroxycinnamic acid
Name: Trans-2-Coumaric acid
Name: Trans-2-hydroxycinnamate
Name: (E)-3-(2-Hydroxyphenyl)prop-2-enoic acid
Name: Trans-o-Coumaric acid
Class: unknown
Formula: C9H8O3
Exact mass: 164.04734411599998
SMILES: OC(=O)C=CC=1C=CC=CC=1(O)
InChI: not available
Instrument: micrOTOF-Q
Instrument type: ESI-TOF
Precursor m/z: 165.055
Precursor type: [M-H]-
Base peak: 163.041
m/z	relative intensity
91.054	2
93.033	3
112.987	2
117.035	12
119.051	985
120.054	86
121.057	5
163.041	999
164.044	91
165.046	10
185.022	29
186.025	3
349.067	39
350.071	8
