Mass spectrum: Phloroglucinol; MS/MS; ESI-TOF; CE:10 eV; [M-H]-
Name: Phloroglucinol
Name: 1,3,5-Benzenetriol,1,3,5-trihydroxybenzene
Name: Phloroglucinol, Phloroglucin, Phloroglucine, Spasfon-Lyoc, benzene-S-triol, Dilospan S, 5-oxyresorcinol, S-trihydroxybenzene
Name: 4-06-00-07361 (Beilstein Handbook Reference), I04-0078, InChI=1/C6H6O3/c7-4-1-5(8)3-6(9)2-4/H1-3,7-9, 6099-90-7
Name: 79330_ALDRicH, P1178_SIGMA, C6H6O3, CPD-16, P3502_SIAL, 1,3,5-benzenetriol, dihydrate, NSC 1572, 79330_FLUKA, CHEbi:16204
Name: AI3-08848, BBR-006755, NCGC00166270-01, LS-105905, TL8000285, P0249, P1376, C02183, D00152, 108-73-6
Name: Dilospan S (TN), 1,3,5-triol, 5-oxyresorcinolphloroglucin, Phloroglucinol (JAN), Phloroglucinol dihydrate, benzene, 1,3,5-trihydroxy-, WLN: QR CQ EQ, 1,3,5-trihydroxycyclohexatriene, CCRIS 4147, P38005_ALDRicH
Name: EineCS 203-611-2, NSC1572, 1,3,5-THB, MolPort-000-871-966, AIDS017800, 1,3,5-trihydroxybenzene dihydrate, AIDS-017800, BRN 1341907, c0026, ZINC00391883
Name: Floroglucinol, Floroglucin, 5-hydroxyresorcinol, benzene, trihydroxy sym-trihydroxybenzene, 3,5-dihydroxyphenol, 5-benzenetriol, Floroglucin [Czech], benzene-1,3,5-triol, Floroglucinol [Czech]
Class: unknown
Formula: C6H6O3
Exact mass: 126.03169405199999
SMILES: OC=1C=C(O)C=C(O)C=1
InChI: not available
Instrument: micrOTOF-Q
Instrument type: ESI-TOF
Precursor m/z: 125.024
Precursor type: [M-H]-
Base peak: 83.0115
m/z	relative intensity
83.013	999
125.025	365
