Mass spectrum: Cytidine-5'-diphosphocholine; ; ESI-TOF; CE:10 eV; [M-H]-
Name: Cytidine-5'-diphosphocholine
Name: CDP-choline
Name: Citicoline
Name: Cytidine Diphosphate Choline
Class: unknown
Formula: C14H26N4O11P2
Exact mass: 488.107330912
SMILES: C[N+](C)(C)CCOP(=O)([O-])OP(=O)(O)OCC1OC(C(O)C1(O))N2C=CC(N)=NC2(=O)
InChI: not available
Instrument: micrOTOF-Q
Instrument type: ESI-TOF
Precursor m/z: 487.098
Precursor type: [M-H]-
Base peak: 487.094
m/z	relative intensity
487.100	999
488.103	173
489.105	37
490.107	5
