Mass spectrum: Lactulose; ; ESI-TOF; CE:10 eV; [M-H]-
Name: Lactulose
Name: 4-O-(Z)--D-Galactopyranosyl-D-fructofuranose,4-O-(Z)--D-Galactopyranosyl-D-fructose
Name: (2S,3R,4S,5R,6R)-2-[(2R,3S,4S,5R)-4,5-Dihydroxy-2,5-bis(hydroxymethyl)oxolan-3-yl]oxy-6-(hydroxymethyl)oxane-3,4,5-triol
Class: unknown
Formula: C12H22O11
Exact mass: 342.116211524
SMILES: OCC2OC(OC1C(CO)OC(O)(CO)C1(O))C(O)C(O)C2(O)
InChI: not available
Instrument: micrOTOF-Q
Instrument type: ESI-TOF
Precursor m/z: 341.109
Precursor type: [M-H]-
Base peak: 683.217
m/z	relative intensity
683.225	999
684.229	273
685.229	81
686.233	15
687.236	2
