Mass spectrum: L-Allo-threonine; ; ESI-TOF; CE:10 eV; [M-H]-
Name: L-Allo-threonine
Name: L-Allothreonine,(2S,3S)-2-amino-3-hydroxybutanoate ,(2S,3S)-2-amino-3-hydroxybutanoic acid,Allo-L-threonine
Class: unknown
Formula: C4H9NO3
Exact mass: 119.058243148
SMILES: CC(O)C(N)C(O)=O
InChI: not available
Instrument: micrOTOF-Q
Instrument type: ESI-TOF
Precursor m/z: 683.225
Precursor type: [M-H]-
Base peak: 118.048
m/z	relative intensity
118.051	999
119.054	48
120.055	6
