Mass spectrum: 3-(2,4-Dihydroxyphenyl)propionic acid; ; ESI-TOF; CE:10 eV; [M+H]+
Name: 3-(2,4-Dihydroxyphenyl)propionic acid
Name: 2,4-Dihydroxy-benzenepropanoic acid
Name: 2,4-Dihydroxyhydrocinnamic acid
Name: Hydroumbellic acid
Class: unknown
Formula: C9H10O4
Exact mass: 182.0579088
SMILES: OC(=O)CCC=1C=CC(O)=CC=1(O)
InChI: not available
Instrument: micrOTOF-Q
Instrument type: ESI-TOF
Precursor m/z: 167.07
Precursor type: [M+H]+
Base peak: 183.061
m/z	relative intensity
183.065	999
184.069	100
185.070	13
