Mass spectrum: N-Acetyl-L-phenylalanine; ; ESI-TOF; CE:10 eV; [M+H]+
Name: N-Acetyl-L-phenylalanine
Name: (2S)-2-Acetamido-3-phenylpropanoic acid
Name: Acetyl-L-phenylalanine  ,L-N-acetylphenylalanine ,N-acetylphenylalanine ,N-acetyl-3-phenyl-L-Alanine,acetyl phenylalanine
Class: unknown
Formula: C11H13NO3
Exact mass: 207.089543276
SMILES: CC(=O)NC(CC=1C=CC=CC=1)C(O)=O
InChI: not available
Instrument: micrOTOF-Q
Instrument type: ESI-TOF
Precursor m/z: 206.082
Precursor type: [M+H]+
Base peak: 208.1
m/z	relative intensity
208.097	999
209.100	125
210.104	13
