Mass spectrum: (DL) 2-amino-3-phosphonopropionic acid; MS/MS; ESI-TOF; CE:-19 eV; [M-H]-
Name: (DL) 2-amino-3-phosphonopropionic acid
Name: 2-Amino-3-phosphonopropionic acid
Name: 2-Amino-3-phosphonopropionate
Name: 3-Phosphono-DL-alanine
Name: 2-Amino-3-phosphonopropanoate
Name: DL-2-amino-3-phosphonopropionic acid
Name: AP-3
Name: Phosphonoalanine
Class: unknown
Formula: C3H8NO5P
Exact mass: 169.01400898600002
SMILES: NC(CP(O)(O)=O)C(O)=O
InChI: not available
Instrument: micrOTOF-Q
Instrument type: ESI-TOF
Precursor m/z: 168.007
Precursor type: [M-H]-
Base peak: 77.974
m/z	relative intensity
71.012	38
77.974	999
78.958	316
79.977	4
106.991	4
124.017	6
132.972	4
149.996	582
150.997	21
151.999	5
168.007	47
