Mass spectrum: N-Acetylarginine; MS/MS; ESI-TOF; CE:10 eV; [M+H]+
Name: N-Acetylarginine
Name: N2-Acetyl-L-arginine ,N-alpha-L-acetyl-arginine ,N-acetyl-L-arginine ,
Class: unknown
Formula: C8H16N4O3
Exact mass: 216.122240372
SMILES: CC(=O)NC(CCCN=C(N)N)C(O)=O
InChI: not available
Instrument: micrOTOF-Q
Instrument type: ESI-TOF
Precursor m/z: 217.131
Precursor type: [M+H]+
Base peak: 158.081
m/z	relative intensity
70.067	214
71.055	29
72.082	38
74.025	17
88.074	27
95.060	33
97.076	23
111.092	11
112.080	223
113.075	59
114.094	139
115.087	258
116.071	427
117.074	23
130.095	80
139.087	19
140.075	24
154.097	26
157.098	138
158.084	999
159.086	80
175.118	267
176.121	23
182.092	11
199.119	12
200.104	112
201.107	12
217.130	252
218.134	30
