Mass spectrum: 5-Methylcytosine; MS/MS; ESI-TOF; CE:10 eV; [M-H]-
Name: 5-Methylcytosine
Name: 4-Amino-2-hydroxy-5-methylpyrimidine,4-amino-5-methyl-3H-pyrimidin-2-one
Class: unknown
Formula: C5H7N3O
Exact mass: 125.058911844
SMILES: CC1=CNC(=O)N=C1(N)
InChI: not available
Instrument: micrOTOF-Q
Instrument type: ESI-TOF
Precursor m/z: 256.093
Precursor type: [M-H]-
Base peak: 123.053
m/z	relative intensity
81.046	131
95.061	290
123.056	999
124.052	642
166.062	221
