Mass spectrum: Cadaverine; ; ESI-TOF; CE:10 eV; [M+H]+
Name: Cadaverine
Name: 1,5-Diaminopentane
Name: 1,5-Pentamethylenediamine
Name: 1,5-Pentanediamine
Name: Cadaverine dihydrochloride
Name: Pentamethylenediamine
Name: Pentane-1,5-diamine
Class: unknown
Formula: C5H14N2
Exact mass: 102.11569844799999
SMILES: NCCCCCN
InChI: not available
Instrument: micrOTOF-Q
Instrument type: ESI-TOF
Precursor m/z: 103.123
Precursor type: [M+H]+
Base peak: 103.126
m/z	relative intensity
103.123	999
104.126	63
105.128	2
