Mass spectrum: BOC Valine; ; ESI-TOF; CE:10 eV; [M+H]+
Name: BOC Valine
Class: unknown
Formula: C10H19NO4
Exact mass: 217.131408088
SMILES: CC(C)C(NC(=O)OC(C)(C)C)C(O)=O
InChI: not available
Instrument: micrOTOF-Q
Instrument type: ESI-TOF
Precursor m/z: 216.123
Precursor type: [M+H]+
Base peak: 218.135
m/z	relative intensity
218.139	999
219.142	116
220.143	14
