Mass spectrum: 2,5-Furandicarboxylic acid; ; ESI-TOF; CE:10 eV; [M-H]-
Name: 2,5-Furandicarboxylic acid
Name: 2,5-Furandicarboxylate
Name: 2, 5-Furandicarboxylic acid
Name: Dehydromucate
Name: Dehydromucic acid
Name: Furan 2,5-dicarboxylic acid
Name: Furan 2,5-dicarboxylate
Name: Furan-2,5-dicarboxylate
Name: Furane-a,a'-dicarboxylate
Name: Furane-a,a'-dicarboxylic acid
Name: Furane-alpha,alpha'-dicarboxylic acid
Class: unknown
Formula: C6H4O5
Exact mass: 156.00587322799998
SMILES: OC(=O)C1=CC=C(O1)C(O)=O
InChI: not available
Instrument: micrOTOF-Q
Instrument type: ESI-TOF
Precursor m/z: 157.014
Precursor type: [M-H]-
Base peak: 154.999
m/z	relative intensity
83.012	2
88.987	3
111.008	76
112.012	4
139.003	3
154.999	999
156.002	57
157.003	10
