Mass spectrum: 7,8-Dihydrobiopterin; ; ESI-TOF; CE:10 eV; [M+H]+
Name: 7,8-Dihydrobiopterin
Name: 7,8-Dihydrobiopterin
Class: unknown
Formula: C9H13N5O3
Exact mass: 239.10183927600002
SMILES: CC(O)C(O)C=1CNC=2NC(N)=NC(=O)C=2(N=1)
InChI: not available
Instrument: micrOTOF-Q
Instrument type: ESI-TOF
Precursor m/z: 194.068
Precursor type: [M+H]+
Base peak: 240.106
m/z	relative intensity
138.055	2
144.080	3
149.023	3
151.075	2
162.092	2
163.942	1
165.064	6
166.072	6
168.087	4
178.074	1
179.079	1
180.072	1
181.952	4
182.067	4
195.076	2
196.083	76
197.085	7
220.085	2
222.099	29
223.101	3
224.125	2
238.094	68
239.097	10
239.343	2
240.111	999
241.112	124
242.114	12
