Mass spectrum: D-Mannoheptulose; MS/MS; ESI-TOF; CE:9 eV; [M+H]+
Name: D-Mannoheptulose
Name: (+)-Mannoheptulose
Name: Alpha-D-Mannoheptulopyranose
Name: (D) Mannoheptulose
Name: Hept-2-ulose
Name: Mannoheptose
Name: D-Manno-2-heptulose
Class: unknown
Formula: C7H14O7
Exact mass: 210.07395278799999
SMILES: OCC1OC(O)(CO)C(O)C(O)C1(O)
InChI: not available
Instrument: micrOTOF-Q
Instrument type: ESI-TOF
Precursor m/z: 193.071
Precursor type: [M+H]+
Base peak: 157.045
m/z	relative intensity
85.027	525
97.028	977
111.043	258
115.039	243
127.042	263
139.039	279
157.050	999
175.059	286
193.072	240
