Mass spectrum: Chlorogenic acid; ; ESI-TOF; CE:10 eV; [M+H]+
Name: Chlorogenic acid
Name: Chlorogenate
Name: 3-(3,4-Dihydroxycinnamoyl)quinic acid
Name: 3-Caffeoylquinic acid
Name: 3-O-Caffeoylquinic acid
Name: 5-O-(3,4-Dihydroxycinnamoyl)-L-quinic acid
Class: unknown
Formula: C16H18O9
Exact mass: 354.095082156
SMILES: O=C(C=CC1=CC=C(O)C(O)=C1)OC2CC(O)(CC(O)C2(O))C(O)=O
InChI: not available
Instrument: micrOTOF-Q
Instrument type: ESI-TOF
Precursor m/z: 353.087
Precursor type: [M+H]+
Base peak: 355.099
m/z	relative intensity
355.102	999
356.105	191
357.107	26
358.109	3
