Mass spectrum: 1-Methylxanthine; ; ESI-TOF; CE:10 eV; [M-H]-
Name: 1-Methylxanthine
Class: unknown
Formula: C6H6N4O2
Exact mass: 166.049075432
SMILES: CN1C(=O)NC=2N=CNC=2(C1(=O))
InChI: not available
Instrument: micrOTOF-Q
Instrument type: ESI-TOF
Precursor m/z: 258.027
Precursor type: [M-H]-
Base peak: 165.041
m/z	relative intensity
108.021	6
112.986	11
146.940	19
154.972	6
165.042	999
166.044	69
167.046	6
174.957	6
180.973	8
206.972	11
353.071	6
