Mass spectrum: Isobarbituricacid; MS/MS; ESI-TOF; CE:10 eV; [M-H]-
Name: Isobarbituricacid
Name: 5-Hydroxy-1H-pyrimidine-2,4-dione
Name: 2,4,5-Trihydroxypyrimidine &nbsp;,5-hydroxyuracil,
Class: unknown
Formula: C4H4N2O3
Exact mass: 128.02219198799997
SMILES: OC1=CNC(=O)NC1(=O)
InChI: not available
Instrument: micrOTOF-Q
Instrument type: ESI-TOF
Precursor m/z: 127.014
Precursor type: [M-H]-
Base peak: 127.014
m/z	relative intensity
84.007	38
127.014	999
128.017	50
