Mass spectrum: Tryptophane; ; ESI-TOF; CE:10 eV; [M+H]+
Name: Tryptophane
Class: unknown
Formula: C11H12N2O2
Exact mass: 204.089877624
SMILES: NC(CC1=CNC2=CC=CC=C12)C(O)=O
InChI: not available
Instrument: micrOTOF-Q
Instrument type: ESI-TOF
Precursor m/z: 188.071
Precursor type: [M+H]+
Base peak: 205.097
m/z	relative intensity
205.097	999
206.100	128
207.104	12
