Mass spectrum: 2-Naphthol; ; ESI-TOF; CE:10 eV; [M+H]+
Name: 2-Naphthol
Name: b-Naphthol
Name: Beta-naphthol
Name: 2-Hydroxynaphthalene
Name: 2-Naphthalenol
Name: Beta-hydroxynaphthalene
Class: unknown
Formula: C10H8O
Exact mass: 144.057514876
SMILES: OC=1C=CC=2C=CC=CC=2(C=1)
InChI: not available
Instrument: micrOTOF-Q
Instrument type: ESI-TOF
Precursor m/z: 143.05
Precursor type: [M+H]+
Base peak: 145.068
m/z	relative intensity
91.055	4
103.054	8
115.054	20
116.061	3
117.070	66
118.074	6
119.084	5
122.096	6
126.046	4
127.054	15
128.060	2
144.058	22
144.622	2
145.065	999
146.068	112
147.071	7
149.023	6
155.061	93
156.064	10
286.100	5
287.108	64
288.112	13
309.091	99
310.094	21
311.098	2
