Mass spectrum: 5-Hydroxy-6-methyluracil; MS/MS; ESI-TOF; CE:10 eV; [M-H]-
Name: 5-Hydroxy-6-methyluracil
Class: unknown
Formula: C6H8N2O3
Exact mass: 156.053492116
SMILES: [H]OC(=O)C([H])([H])C(O[H])C([H])([H])C([H])([H])C([H])([H])C([H])([H])C([H])([H])C([H])([H])C([H])([H])C([H])([H])C([H])([H])[H]
InChI: not available
Instrument: micrOTOF-Q
Instrument type: ESI-TOF
Precursor m/z: 155.047
Precursor type: [M-H]-
Base peak: 137.034
m/z	relative intensity
94.029	17
112.040	14
137.035	999
138.038	65
155.046	163
