Mass spectrum: Lipoicacid; MS/MS; ESI-TOF; CE:10 eV; [M-H]-
Name: Lipoicacid
Name: (Oct)-1,2-Dithiolane-3-pentanoic acid,6,8-Dithiooctanoic acid,DL-6,8-Thioctic acid,Lipoate,alpha-Lipoic acid,Thioctic acid,5-[(3S)-Dithiolan-3-yl]pentanoic acid
Class: unknown
Formula: C8H14O2S2
Exact mass: 206.043521688
SMILES: OC(=O)CCCCC1CCSS1
InChI: not available
Instrument: micrOTOF-Q
Instrument type: ESI-TOF
Precursor m/z: 205.036
Precursor type: [M-H]-
Base peak: 171.051
m/z	relative intensity
63.943	17
64.951	30
93.069	428
94.073	33
99.026	11
127.058	450
128.061	35
129.056	21
137.060	14
139.076	79
141.091	13
159.048	97
160.052	10
171.048	999
172.050	94
173.045	53
205.036	12
