Mass spectrum: Dimethylsuccinic acid; MS/MS; ESI-TOF; CE:10 eV; [M-H]-
Name: Dimethylsuccinic acid
Name: Dimethylsuccinic acid
Class: unknown
Formula: C6H10O4
Exact mass: 146.0579088
SMILES: CC(C)(CC(O)=O)C(O)=O
InChI: not available
Instrument: micrOTOF-Q
Instrument type: ESI-TOF
Precursor m/z: 145.051
Precursor type: [M-H]-
Base peak: 101.057
m/z	relative intensity
83.049	11
101.059	999
102.063	60
127.039	15
145.050	89
