Mass spectrum: Propionylcarnitine; ; ESI-TOF; CE:10 eV; [M+H]+
Name: Propionylcarnitine
Name: Propionyl carnitine  ,L-propionylcarnitine  ,1-propanaminium, 3-carboxy-N,N,N-trimethyl-2-(1-oxopropoxy)-, inner salt,3-carboxy-N,N,N-trimethyl-2-(1-oxopropoxy)-1-propanaminium inner salt,O-propionylcarnitine,propionyl-L-carnitine,,
Class: unknown
Formula: C10H19NO4
Exact mass: 217.131408088
SMILES: CCC(=O)OC(CC(=O)[O-])C[N+](C)(C)C
InChI: not available
Instrument: micrOTOF-Q
Instrument type: ESI-TOF
Precursor m/z: 218.14
Precursor type: [M+H]+
Base peak: 218.136
m/z	relative intensity
85.0288	14
131.9749	4
144.0818	23
146.9621	3
149.0234	8
159.0644	30
159.9681	9
160.0690	4
162.0941	15
177.9781	3
181.9523	7
218.1399	999
219.1430	108
220.1441	13
