Mass spectrum: Hexanoylglycine; ; ESI-TOF; CE:10 eV; [M-H]-
Name: Hexanoylglycine
Name: 2-(Hexanoylamino)acetic acid
Name: N-(1-Oxohexyl)-glycine
Name: N-Caproylglycine
Class: unknown
Formula: C8H15NO3
Exact mass: 173.10519333999997
SMILES: CCCCCC(=O)NCC(O)=O
InChI: not available
Instrument: micrOTOF-Q
Instrument type: ESI-TOF
Precursor m/z: 362.051
Precursor type: [M-H]-
Base peak: 172.101
m/z	relative intensity
172.098	999
173.101	93
174.103	10
