Mass spectrum: p-Coumaric acid; ; ESI-TOF; CE:10 eV; [M-H]-
Name: p-Coumaric acid
Name: Para-Coumaric acid
Name: Para-Coumarate
Name: 4-Hydroxycinnamic acid
Name: p-Coumarate
Name: Para-hydroxycinnamic acid
Name: 4-Coumarate
Name: 4-Hydroxycinnamate
Name: Trans-4-hydroxycinnamate
Name: (E)-3-(4-Hydroxyphenyl)prop-2-enoic acid
Name: Trans-4-hydroxycinnamic acid
Class: unknown
Formula: C9H8O3
Exact mass: 164.04734411599998
SMILES: OC(=O)C=CC1=CC=C(O)C=C1
InChI: not available
Instrument: micrOTOF-Q
Instrument type: ESI-TOF
Precursor m/z: 163.039
Precursor type: [M-H]-
Base peak: 163.038
m/z	relative intensity
93.033	3
112.985	6
117.034	3
119.050	569
120.053	48
121.053	3
129.975	3
146.949	4
163.039	999
164.042	95
165.043	11
