Mass spectrum: Ibuprofen; MS/MS; ESI-TOF; CE:10 eV; [M-H]-
Name: Ibuprofen
Name: 2-[4-(2-Methylpropyl)phenyl]propanoic acid
Name: a-Methyl-4-(isobutyl)phenylacetic acid
Class: unknown
Formula: C13H18O2
Exact mass: 206.130679816
SMILES: CC(C)CC1=CC=C(C=C1)C(C)C(O)=O
InChI: not available
Instrument: micrOTOF-Q
Instrument type: ESI-TOF
Precursor m/z: 205.123
Precursor type: [M-H]-
Base peak: 159.115
m/z	relative intensity
159.118	999
160.123	112
203.107	87
205.122	83
