Mass spectrum: Mesaconicacid; ; ESI-TOF; CE:10 eV; [M-H]-
Name: Mesaconicacid
Name: (E)-2-Methylbut-2-enedioic acid
Name: Mesaconate,2-methylfumarate,Mesaconic acid,methylfumaric acid,methylfumarate,
Class: unknown
Formula: C5H6O4
Exact mass: 130.026608672
SMILES: CC(=CC(O)=O)C(O)=O
InChI: not available
Instrument: micrOTOF-Q
Instrument type: ESI-TOF
Precursor m/z: 129.02
Precursor type: [M-H]-
Base peak: 129.022
m/z	relative intensity
129.019	999
130.023	56
131.024	9
