Mass spectrum: N-Methyl-L-glutamicacid; ; ESI-TOF; CE:10 eV; [M+H]+
Name: N-Methyl-L-glutamicacid
Name: 2-(Methylamino)pentanedioic acid
Name: N-Methyl-L-glutamate;,
Class: unknown
Formula: C6H11NO4
Exact mass: 161.068807832
SMILES: CNC(CCC(O)=O)C(O)=O
InChI: not available
Instrument: micrOTOF-Q
Instrument type: ESI-TOF
Precursor m/z: 160.062
Precursor type: [M+H]+
Base peak: 162.079
m/z	relative intensity
162.076	999
163.079	71
164.080	10
