Mass spectrum: Tryptophane; ; ESI-TOF; CE:10 eV; [M-H]-
Name: Tryptophane
Class: unknown
Formula: C11H12N2O2
Exact mass: 204.089877624
SMILES: NC(CC1=CNC2=CC=CC=C12)C(O)=O
InChI: not available
Instrument: micrOTOF-Q
Instrument type: ESI-TOF
Precursor m/z: 203.082
Precursor type: [M-H]-
Base peak: 203.083
m/z	relative intensity
116.050	32
142.066	11
159.093	18
203.082	999
204.085	120
205.088	11
