Mass spectrum: 2,5-Furandicarboxylic acid; MS/MS; ESI-TOF; CE:18 eV; [M+H]+
Name: 2,5-Furandicarboxylic acid
Name: 2,5-Furandicarboxylate
Name: 2, 5-Furandicarboxylic acid
Name: Dehydromucate
Name: Dehydromucic acid
Name: Furan 2,5-dicarboxylic acid
Name: Furan 2,5-dicarboxylate
Name: Furan-2,5-dicarboxylate
Name: Furane-a,a'-dicarboxylate
Name: Furane-a,a'-dicarboxylic acid
Name: Furane-alpha,alpha'-dicarboxylic acid
Class: unknown
Formula: C6H4O5
Exact mass: 156.00587322799998
SMILES: OC(=O)C1=CC=C(O1)C(O)=O
InChI: not available
Instrument: micrOTOF-Q
Instrument type: ESI-TOF
Precursor m/z: 139.003
Precursor type: [M+H]+
Base peak: 95.0141
m/z	relative intensity
83.013	19
95.013	999
96.016	59
111.009	26
123.007	40
139.003	699
140.006	45
