Mass spectrum: 2-Phenylbutyric acid; ; ESI-TOF; CE:10 eV; [M-H]-
Name: 2-Phenylbutyric acid
Name: 2-Phenylbutanoate
Name: (RS)-2-phenylbutanoate
Name: (RS)-2-phenylbutanoic acid
Name: 2-Phenylbutyrate
Name: 2-Phenyl-butyric acid
Name: a-Ethyl-a-toluate
Name: a-Ethyl-a-toluic acid
Name: a-Ethylbenzeneacetate
Name: a-Ethylbenzeneacetic acid
Name: a-Ethyl-benzeneacetic acid
Name: a-Ethylphenylacetate
Name: a-Ethylphenylacetic acid
Name: Alpha-ethyl-alpha-toluate
Name: Alpha-ethyl-alpha-toluic acid
Name: Alpha-ethylbenzeneacetate
Name: Alpha-ethylbenzeneacetic acid
Name: Alpha-ethylphenylacetate
Name: Alpha-ethylphenylacetic acid
Name: Alpha-phenyl butyric acid
Name: Alpha-phenylbutyrate
Name: a-Phenylbutyrate
Name: a-Phenylbutyric acid
Class: unknown
Formula: C10H12O2
Exact mass: 164.083729624
SMILES: CCC(C(O)=O)C=1C=CC=CC=1
InChI: not available
Instrument: micrOTOF-Q
Instrument type: ESI-TOF
Precursor m/z: 163.076
Precursor type: [M-H]-
Base peak: 163.08
m/z	relative intensity
84.989	2
93.033	2
117.071	59
118.074	6
119.085	8
163.076	999
164.079	107
165.083	9
231.063	54
232.064	6
349.139	212
350.142	43
351.147	6
