Mass spectrum: Genistein; MS/MS; ESI-TOF; CE:33 eV; [M+H]+
Name: Genistein
Name: 4',5,7-Trihydroxyisoflavone
Name: 5,7,4'-Trihydroxyisoflavone
Name: 5,7-Dihydroxy-3-(4-hydroxyphenyl)-4H-1-benzopyran-4-one
Class: unknown
Formula: C15H10O5
Exact mass: 270.05282342
SMILES: OC1=CC=C(C=C1)C2=COC=3C=C(O)C=C(O)C=3(C2(=O))
InChI: not available
Instrument: micrOTOF-Q
Instrument type: ESI-TOF
Precursor m/z: 271.066
Precursor type: [M+H]+
Base peak: 153.017
m/z	relative intensity
91.054	333
119.049	158
121.028	61
131.053	64
141.070	100
145.033	147
149.024	249
153.018	999
154.022	63
159.048	118
165.019	87
169.066	194
173.060	52
187.071	81
197.059	166
215.071	692
216.072	87
225.056	53
243.067	365
253.051	178
271.063	942
272.066	135
