Mass spectrum: N-Acetyl-L-glutamine; MS/MS; ESI-TOF; CE:10 eV; [M+H]+
Name: N-Acetyl-L-glutamine
Name: (2S)-2-Acetamido-5-amino-5-oxopentanoic acid
Class: unknown
Formula: C7H12N2O4
Exact mass: 188.079706864
SMILES: CC(=O)NC(CCC(N)=O)C(O)=O
InChI: not available
Instrument: micrOTOF-Q
Instrument type: ESI-TOF
Precursor m/z: 189.087
Precursor type: [M+H]+
Base peak: 130.05
m/z	relative intensity
83.061	12
84.045	162
85.048	7
101.070	16
102.055	13
126.053	8
129.064	31
129.653	3
130.049	999
131.052	61
132.054	7
143.081	19
144.067	8
147.076	48
148.063	13
171.076	6
172.060	35
173.063	3
189.086	6
