Mass spectrum: Dihydrothymine; MS/MS; ESI-TOF; CE:17 eV; [M+H]+
Name: Dihydrothymine
Name: 5,6-Dihydrothymine
Name: 5,6-Dihydro-5-methyluracil
Name: 5-Methyl-1,3-diazinane-2,4-dione
Name: 5-Methyldihydropyrimidine-2,4(1H,3H)-dione
Class: unknown
Formula: C5H8N2O2
Exact mass: 128.058577496
SMILES: CC1CNC(=O)NC1(=O)
InChI: not available
Instrument: micrOTOF-Q
Instrument type: ESI-TOF
Precursor m/z: 129.066
Precursor type: [M+H]+
Base peak: 86.0583
m/z	relative intensity
69.032	170
84.043	798
85.047	56
86.059	999
87.064	52
112.039	146
129.066	357
130.052	150
