Mass spectrum: 3,4-Dimethoxyphenylacetic acid; MS/MS; ESI-TOF; CE:19 eV; [M+H]+
Name: 3,4-Dimethoxyphenylacetic acid
Name: (3,4-Dimethoxyphenyl)acetate
Name: (3,4-Dimethoxyphenyl)acetic acid
Name: 3,4-(Dimethoxy)benzeneacetic acid
Name: 3,4-Dimethoxybenzeneacetate
Name: 3,4-Dimethoxybenzeneacetic acid
Name: 3,4-Dimethoxyphenyl acetic acid
Name: 3,4-Dimethoxyphenylacetate
Name: Homoveratrate
Name: Homoveratric acid
Class: unknown
Formula: C10H12O4
Exact mass: 196.073558864
SMILES: COC1=CC=C(CC(O)=O)C=C1(OC)
InChI: not available
Instrument: micrOTOF-Q
Instrument type: ESI-TOF
Precursor m/z: 197.081
Precursor type: [M+H]+
Base peak: 151.072
m/z	relative intensity
79.053	1
80.062	2
90.046	2
91.054	7
105.035	1
106.041	2
107.049	26
108.056	17
109.063	3
118.041	2
119.055	1
135.044	8
136.053	12
137.059	4
138.065	1
150.612	2
151.076	999
152.079	101
153.081	9
182.058	2
