Mass spectrum: 3-(3-Hydroxyphenyl)propionic acid; ; ESI-TOF; CE:10 eV; [M+H]+
Name: 3-(3-Hydroxyphenyl)propionic acid
Name: Beta-(3-hydroxyphenyl)propionic acid
Name: 3-(3-Hydroxy-phenyl)propanoic acid
Name: 3-Hydroxydihydrocinnamic acid
Name: 3-(m-Hydroxyphenyl)propionic acid
Name: 3-(3-Hydroxyphenyl)propionate
Name: 3-(m-Hydroxyphenyl)propionate
Name: b-(3-Hydroxyphenyl)propionic acid
Name: 3HPP
Name: 3-Hydroxybenzenepropanoic acid
Name: 3-Hydroxyphenylpropionic acid
Name: 3-(3-Hydroxyphenyl)propanoate
Name: Dihydro-3-coumaric acid
Name: 3-Hydroxyphenylpropanoate
Name: 3-Hydroxyphenylpropionate
Name: m-Hydroxyphenylpropionate
Name: b-(3-Hydroxyphenyl)propionate
Name: b-(m-Hydroxyphenyl)propionic acid
Name: b-(m-Hydroxyphenyl)propionate
Name: m-Hydroxy-hydrocinnamic acid
Name: Beta-(3-hydroxyphenyl)propionate
Name: Beta-(m-hydroxyphenyl)propionic acid
Name: Beta-(m-hydroxyphenyl)propionate
Name: 3-Hydroxydihydrocinnamate
Name: Dihydro-m-coumarate
Name: Dihydro-m-coumaric acid
Name: MHPP
Name: m-Hydroxy-hydrocinnamate
Name: m-Hydroxyphenylpropionic acid
Class: unknown
Formula: C9H10O3
Exact mass: 166.06299417999998
SMILES: OC(=O)CCC=1C=CC=C(O)C=1
InChI: not available
Instrument: micrOTOF-Q
Instrument type: ESI-TOF
Precursor m/z: 167.07
Precursor type: [M+H]+
Base peak: 167.073
m/z	relative intensity
167.070	999
168.074	100
169.076	11
