Mass spectrum: 2-Furoylglycine; ; ESI-TOF; CE:10 eV; [M+H]+
Name: 2-Furoylglycine
Name: 2-(Furan-2-carbonylamino)acetic acid
Name: (2-Furoylamino)acetic acid
Name: Furfuroylglycine
Name: Furoylglycine
Name: N-(2-Furoyl)glycine
Name: Furoilglicina
Name: Pyromucuric acid
Name: N-2-Furoyl-glycine
Class: unknown
Formula: C7H7NO4
Exact mass: 169.03750770399998
SMILES: OC(=O)CNC(=O)C1=CC=CO1
InChI: not available
Instrument: micrOTOF-Q
Instrument type: ESI-TOF
Precursor m/z: 170.045
Precursor type: [M+H]+
Base peak: 170.045
m/z	relative intensity
95.013	202
96.016	13
124.039	410
125.041	28
142.050	11
144.080	11
146.962	7
149.024	17
152.037	204
153.039	20
159.969	7
162.090	7
170.045	999
171.048	76
172.049	10
192.027	146
193.030	13
