Mass spectrum: Lactulose; ; ESI-TOF; CE:10 eV; [M+H]+
Name: Lactulose
Name: 4-O-(Z)--D-Galactopyranosyl-D-fructofuranose,4-O-(Z)--D-Galactopyranosyl-D-fructose
Name: (2S,3R,4S,5R,6R)-2-[(2R,3S,4S,5R)-4,5-Dihydroxy-2,5-bis(hydroxymethyl)oxolan-3-yl]oxy-6-(hydroxymethyl)oxane-3,4,5-triol
Class: unknown
Formula: C12H22O11
Exact mass: 342.116211524
SMILES: OCC2OC(OC1C(CO)OC(O)(CO)C1(O))C(O)C(O)C2(O)
InChI: not available
Instrument: micrOTOF-Q
Instrument type: ESI-TOF
Precursor m/z: 649.219
Precursor type: [M+H]+
Base peak: 649.222
m/z	relative intensity
117.066	7
127.040	47
145.050	48
163.060	132
164.063	9
190.020	9
208.032	8
271.078	10
289.091	44
307.101	18
325.112	273
326.116	33
327.118	7
343.124	7
352.074	19
360.148	85
360.577	8
361.085	25
361.585	8
362.100	15
365.107	18
370.086	30
370.587	9
371.085	8
396.035	8
451.143	10
469.154	12
487.166	260
488.168	51
489.171	13
505.175	18
533.160	11
540.647	7
541.145	62
541.647	24
542.145	17
631.207	19
649.219	999
650.221	253
651.225	65
652.232	12
667.228	33
668.231	10
685.241	27
702.267	68
703.272	16
704.233	10
707.224	18
712.207	36
712.709	20
713.210	15
738.150	12
739.156	7
