Mass spectrum: Dihydroxyfumaric acid; ; ESI-TOF; CE:10 eV; [M-H]-
Name: Dihydroxyfumaric acid
Name: (2E)-2,3-Dihydroxybut-2-enedioic acid,3,4,4-trihydroxy-2-oxo-but-3-enoic acid
Name: Dihydroxyfumarate
Class: unknown
Formula: C4H4O6
Exact mass: 148.000787848
SMILES: OC(=O)C(O)=C(O)C(O)=O
InChI: not available
Instrument: micrOTOF-Q
Instrument type: ESI-TOF
Precursor m/z: 146.994
Precursor type: [M-H]-
Base peak: 146.997
m/z	relative intensity
146.994	999
147.997	46
148.998	13
