Mass spectrum: 1-Methyladenosine; MS/MS; ESI-TOF; CE:-24 eV; [M-H]-
Name: 1-Methyladenosine
Name: 1-Methyl-adenosine
Name: N,6-Didehydro-1,6-dihydro-1-methyladenosine
Name: N1-Methyladenosine
Name: (2R,3S,4R,5R)-2-(Hydroxymethyl)-5-(6-imino-1-methylpurin-9-yl)oxolane-3,4-diol
Name: N,6-Didehydro-1,6-dihydro-1-methyl-Adenosine
Class: unknown
Formula: C11H15N5O4
Exact mass: 281.11240396
SMILES: CN3C=NC1=C(N=CN1C2OC(CO)C(O)C2(O))C3(=N)
InChI: not available
Instrument: micrOTOF-Q
Instrument type: ESI-TOF
Precursor m/z: 280.105
Precursor type: [M-H]-
Base peak: 148.065
m/z	relative intensity
107.035	43
133.037	12
148.062	999
149.065	83
