Mass spectrum: Isobarbituricacid; ; ESI-TOF; CE:10 eV; [M-H]-
Name: Isobarbituricacid
Name: 5-Hydroxy-1H-pyrimidine-2,4-dione
Name: 2,4,5-Trihydroxypyrimidine &nbsp;,5-hydroxyuracil,
Class: unknown
Formula: C4H4N2O3
Exact mass: 128.02219198799997
SMILES: OC1=CNC(=O)NC1(=O)
InChI: not available
Instrument: micrOTOF-Q
Instrument type: ESI-TOF
Precursor m/z: 129.03
Precursor type: [M-H]-
Base peak: 127.014
m/z	relative intensity
84.007	24
124.998	34
126.005	7
127.014	999
128.017	51
129.018	8
