Mass spectrum: 5-Methylcytidine; ; ESI-TOF; CE:10 eV; [M-H]-
Name: 5-Methylcytidine
Name: 5-Methyl-cytidine
Class: unknown
Formula: C10H15N3O5
Exact mass: 257.10117058
SMILES: CC1=CN(C(=O)N=C1(N))C2OC(CO)C(O)C2(O)
InChI: not available
Instrument: micrOTOF-Q
Instrument type: ESI-TOF
Precursor m/z: 143.106
Precursor type: [M-H]-
Base peak: 256.097
m/z	relative intensity
256.094	999
257.097	123
258.099	17
259.101	1
