Mass spectrum: Desthiobiotin; MS/MS; ESI-TOF; CE:-25 eV; [M-H]-
Name: Desthiobiotin
Name: 5-Methyl-2-oxo-4-imidazolidinehexanoic acid
Name: D-Desthiobiotin
Name: Dethiobiotin
Class: unknown
Formula: C10H18N2O3
Exact mass: 214.13174243599997
SMILES: CC1NC(=O)NC1(CCCCCC(O)=O)
InChI: not available
Instrument: micrOTOF-Q
Instrument type: ESI-TOF
Precursor m/z: 213.125
Precursor type: [M-H]-
Base peak: 170.116
m/z	relative intensity
94.066	58
96.080	250
97.045	33
126.091	42
128.106	48
140.072	41
152.108	34
167.118	32
169.133	165
170.118	999
171.121	95
213.123	361
214.126	38
