Mass spectrum: 3-Hydroxybenzoic acid; ; ESI-TOF; CE:10 eV; [M-H]-
Name: 3-Hydroxybenzoic acid
Name: 3-Hydroxybenzoate
Name: m-Hydroxybenzoic acid
Name: Meta-hydroxybenzoic acid
Class: unknown
Formula: C7H6O3
Exact mass: 138.03169405199998
SMILES: OC1=CC=CC(=C1)C(O)=O
InChI: not available
Instrument: micrOTOF-Q
Instrument type: ESI-TOF
Precursor m/z: 168.03
Precursor type: [M-H]-
Base peak: 137.027
m/z	relative intensity
93.033	161
94.036	11
137.025	999
138.027	83
139.028	9
