Mass spectrum: Lipoicacid; ; ESI-TOF; CE:10 eV; [M-H]-
Name: Lipoicacid
Name: (Oct)-1,2-Dithiolane-3-pentanoic acid,6,8-Dithiooctanoic acid,DL-6,8-Thioctic acid,Lipoate,alpha-Lipoic acid,Thioctic acid,5-[(3S)-Dithiolan-3-yl]pentanoic acid
Class: unknown
Formula: C8H14O2S2
Exact mass: 206.043521688
SMILES: OC(=O)CCCCC1CCSS1
InChI: not available
Instrument: micrOTOF-Q
Instrument type: ESI-TOF
Precursor m/z: 189.041
Precursor type: [M-H]-
Base peak: 171.047
m/z	relative intensity
93.068	74
102.952	26
112.985	85
127.057	68
129.972	66
146.943	49
154.973	24
159.046	26
165.093	31
171.047	999
172.050	88
173.045	55
180.979	66
190.930	30
205.036	547
206.039	55
207.030	64
