Mass spectrum: 4-Phenylbutyric acid; ; ESI-TOF; CE:10 eV; [M+H]+
Name: 4-Phenylbutyric acid
Class: unknown
Formula: C10H12O2
Exact mass: 164.083729624
SMILES: O=C(O)CCCC=1C=CC=CC=1
InChI: not available
Instrument: micrOTOF-Q
Instrument type: ESI-TOF
Precursor m/z: 147.08
Precursor type: [M+H]+
Base peak: 147.083
m/z	relative intensity
91.054	52
117.069	6
119.085	7
122.096	10
128.062	19
129.069	88
130.073	10
146.972	8
147.080	999
148.083	109
149.023	11
149.085	8
163.943	5
165.091	22
187.073	48
188.077	6
209.055	56
210.057	6
