Mass spectrum: 2,3-Dihydroxybenzoic acid; MS/MS; ESI-TOF; CE:18 eV; [M+H]+
Name: 2,3-Dihydroxybenzoic acid
Name: 2,3-Dihydroxybenzoate
Name: 2-Pyrocatechuate
Name: 2-Pyrocatechuic acid
Name: 3-Hydroxysalicylate
Name: 3-Hydroxysalicylic acid
Name: Catechol-3-carboxylate
Name: Catecholcarboxylate
Name: Catecholcarboxylic acid
Name: DHBA
Name: DOBK
Name: o-Pyrocatechuate
Name: o-Pyrocatechuic acid
Name: Pyrocatechuate
Name: Pyrocatechuic acid
Class: unknown
Formula: C7H6O4
Exact mass: 154.026608672
SMILES: OC(=O)C1=CC=CC(O)=C1(O)
InChI: not available
Instrument: micrOTOF-Q
Instrument type: ESI-TOF
Precursor m/z: 137.024
Precursor type: [M+H]+
Base peak: 137.021
m/z	relative intensity
81.033	939
82.037	48
107.013	304
108.018	21
109.028	409
110.032	28
125.023	29
127.039	135
137.024	999
138.028	81
