Mass spectrum: Hexanoylglycine; ; ESI-TOF; CE:10 eV; [M+H]+
Name: Hexanoylglycine
Name: 2-(Hexanoylamino)acetic acid
Name: N-(1-Oxohexyl)-glycine
Name: N-Caproylglycine
Class: unknown
Formula: C8H15NO3
Exact mass: 173.10519333999997
SMILES: CCCCCC(=O)NCC(O)=O
InChI: not available
Instrument: micrOTOF-Q
Instrument type: ESI-TOF
Precursor m/z: 172.097
Precursor type: [M+H]+
Base peak: 174.114
m/z	relative intensity
71.084	5
76.038	151
77.041	5
99.080	146
100.084	9
122.095	2
128.107	7
149.023	4
156.101	11
173.573	2
174.113	999
175.116	89
176.117	10
181.951	2
192.124	2
196.095	520
197.097	43
198.100	5
