Mass spectrum: Triethanolamine; MS/MS; ESI-TOF; CE:32 eV; [M+H]+
Name: Triethanolamine
Name: 2,2',2''-Nitrilotriethanol
Name: Alkanolamine
Name: Stingkill
Name: Trolamine
Name: Tris(2-hydroxyethyl)amine
Class: unknown
Formula: C6H15NO3
Exact mass: 149.10519333999997
SMILES: OCCN(CCO)CCO
InChI: not available
Instrument: micrOTOF-Q
Instrument type: ESI-TOF
Precursor m/z: 150.113
Precursor type: [M+H]+
Base peak: 70.0623
m/z	relative intensity
68.050	50
70.064	999
71.067	57
74.059	38
84.080	27
88.075	464
106.086	31
114.091	49
132.102	60
