Mass spectrum: N-Methyl-L-glutamicacid; ; ESI-TOF; CE:10 eV; [M-H]-
Name: N-Methyl-L-glutamicacid
Name: 2-(Methylamino)pentanedioic acid
Name: N-Methyl-L-glutamate;,
Class: unknown
Formula: C6H11NO4
Exact mass: 161.068807832
SMILES: CNC(CCC(O)=O)C(O)=O
InChI: not available
Instrument: micrOTOF-Q
Instrument type: ESI-TOF
Precursor m/z: 162.077
Precursor type: [M-H]-
Base peak: 160.063
m/z	relative intensity
160.062	999
161.065	71
162.066	10
