Mass spectrum: Guanosine-5'-phosphate; ; ESI-TOF; CE:10 eV; [M-H]-
Name: Guanosine-5'-phosphate
Name: GMP
Name: Guanosine 5'-monophosphate
Name: Guanylic acid
Name: Guanosine monophosphate
Class: unknown
Formula: C10H14N5O8P
Exact mass: 363.05799903800005
SMILES: NC=1NC(=O)C=2N=CN(C=2(N=1))C3OC(COP(O)(O)=O)C(O)C3(O)
InChI: not available
Instrument: micrOTOF-Q
Instrument type: ESI-TOF
Precursor m/z: 362.051
Precursor type: [M-H]-
Base peak: 362.053
m/z	relative intensity
362.051	999
363.053	131
364.055	24
365.058	2
