Mass spectrum: 3-Methoxytyramine; MS/MS; ESI-TOF; CE:19 eV; [M+H]+
Name: 3-Methoxytyramine
Name: 3-Methoxy-4-hydroxyphenethylamine hydrochloride
Name: 3-MT
Name: 4-(2-Aminoethyl)-2-methoxy-phenol
Name: 4-(2-Aminoethyl)-2-methoxyphenol hydrochloride
Name: Methoxytyramine
Class: unknown
Formula: C9H13NO2
Exact mass: 167.094628656
SMILES: COC1=CC(CCN)=CC=C1(O)
InChI: not available
Instrument: micrOTOF-Q
Instrument type: ESI-TOF
Precursor m/z: 168.101
Precursor type: [M+H]+
Base peak: 151.079
m/z	relative intensity
91.054	539
92.057	45
95.049	77
108.057	8
119.049	525
120.053	54
123.079	15
136.052	96
137.059	61
151.075	999
152.079	122
153.081	10
