Mass spectrum: 3-Hydroxysebacic acid; MS/MS; ESI-TOF; CE:20 eV; [M+H]+
Name: 3-Hydroxysebacic acid
Name: Hydroxy-decanedioic acid
Class: unknown
Formula: C10H18O5
Exact mass: 218.11542367599998
SMILES: OC(=O)CCCCCCC(O)CC(O)=O
InChI: not available
Instrument: micrOTOF-Q
Instrument type: ESI-TOF
Precursor m/z: 201.112
Precursor type: [M+H]+
Base peak: 95.0854
m/z	relative intensity
91.055	395
93.069	369
95.085	999
109.100	453
119.085	958
137.096	821
147.079	213
