Mass spectrum: Gallic acid; MS/MS; ESI-TOF; CE:-19 eV; [M-H]-
Name: Gallic acid
Name: Gallate
Name: 3,4,5-Trihydroxybenzoate
Name: 3,4,5-Trihydroxybenzoic acid
Name: Pyrogallol-5-carboxylic acid
Class: unknown
Formula: C7H6O5
Exact mass: 170.02152329199998
SMILES: OC(=O)C1=CC(O)=C(O)C(O)=C1
InChI: not available
Instrument: micrOTOF-Q
Instrument type: ESI-TOF
Precursor m/z: 169.015
Precursor type: [M-H]-
Base peak: 125.023
m/z	relative intensity
69.033	9
79.018	16
81.033	22
95.012	10
97.028	66
107.013	10
123.008	4
124.016	35
125.024	999
126.028	67
127.029	8
169.014	68
170.017	6
