Mass spectrum: Strychnine; ; ESI-TOF; CE:10 eV; [M+H]+
Name: Strychnine
Class: unknown
Formula: C21H22N2O2
Exact mass: 334.168127944
SMILES: O=C2CC3OCC=C6CN4CCC57(C1=CC=CC=C1N2C7(C3C6(CC45)))
InChI: not available
Instrument: micrOTOF-Q
Instrument type: ESI-TOF
Precursor m/z: 136.04
Precursor type: [M+H]+
Base peak: 335.172
m/z	relative intensity
335.175	999
336.179	237
337.182	31
338.185	3
