Mass spectrum: L-Glutamine acid amide ??; MS/MS; ESI-TOF; CE:10 eV; [M-H]-
Name: L-Glutamine acid amide ??
Name: Glutamine
Name: L-Glutamine
Name: Levoglutamide
Name: (2S)-2,5-Diamino-5-oxopentanoic acid
Class: unknown
Formula: C5H10N2O3
Exact mass: 146.06914217999997
SMILES: NC(=O)CCC(N)C(O)=O
InChI: not available
Instrument: micrOTOF-Q
Instrument type: ESI-TOF
Precursor m/z: 145.062
Precursor type: [M-H]-
Base peak: 101.074
m/z	relative intensity
71.016	15
82.029	33
84.044	168
85.044	12
99.055	37
100.039	49
101.071	999
102.071	63
107.025	12
109.041	179
125.036	28
127.051	286
128.048	20
145.062	124
