Mass spectrum: Indole-3-propionicacid; ; ESI-TOF; CE:10 eV; [M+H]+
Name: Indole-3-propionicacid
Name: 3-Indololpropionic acid
Name: 3-(3-Indolyl)propanoic acid
Name: 3-(3-Indolyl)propionic acid
Name: IPA
Class: unknown
Formula: C11H11NO2
Exact mass: 189.078978592
SMILES: O=C(O)CCC1=CNC=2C=CC=CC1=2
InChI: not available
Instrument: micrOTOF-Q
Instrument type: ESI-TOF
Precursor m/z: 190.086
Precursor type: [M+H]+
Base peak: 190.088
m/z	relative intensity
190.086	999
191.089	125
192.092	11
