Mass spectrum: 3-(2-Hydroxyphenyl)propionic acid; ; ESI-TOF; CE:10 eV; [M+H]+
Name: 3-(2-Hydroxyphenyl)propionic acid
Name: 2-Hydroxyhydrocinnamic acid
Name: 2-Hydroxyphenylpropanoate
Name: 2-Hydroxyphenylpropionic acid
Name: 3-(2-Hydroxyphenyl)propanoate
Name: 3-(2-Hydroxyphenyl)propionate
Name: Melilotate
Name: Melilotic acid
Class: unknown
Formula: C9H10O3
Exact mass: 166.06299417999998
SMILES: OC(=O)CCC=1C=CC=CC=1(O)
InChI: not available
Instrument: micrOTOF-Q
Instrument type: ESI-TOF
Precursor m/z: 165.058
Precursor type: [M+H]+
Base peak: 149.059
m/z	relative intensity
77.038	6
79.053	10
91.054	13
93.070	16
95.049	16
103.054	30
105.045	7
107.049	199
108.052	16
121.065	309
122.070	27
149.060	999
150.063	98
151.066	10
167.070	242
168.073	25
189.052	626
190.056	55
191.059	5
