Mass spectrum: Isoferulicacid; ; ESI-TOF; CE:10 eV; [M-H]-
Name: Isoferulicacid
Name: Hesperetic acid,Hespertitinic acid,3-hydroxy-4-methoxycinnamic acid  ,Cinnamic acid, 3-hydroxy-4-methoxy-,2-propenoic acid, 3-(3-hydroxy-4-methoxyphenyl)-,3-hydroxy-4-methoxycinnamic acid, predominantly trans ,
Class: unknown
Formula: C10H10O4
Exact mass: 194.0579088
SMILES: COC=1C=CC(C=CC(=O)O)=CC=1(O)
InChI: not available
Instrument: micrOTOF-Q
Instrument type: ESI-TOF
Precursor m/z: 177.056
Precursor type: [M-H]-
Base peak: 193.052
m/z	relative intensity
112.985	15
129.976	7
130.992	6
133.029	17
134.037	64
135.041	6
137.023	16
139.038	5
146.945	10
149.059	11
178.027	330
179.030	31
180.985	20
193.051	999
194.053	110
195.056	14
261.037	32
