Mass spectrum: 2-(4-Hydroxyphenyl)propionic acid; MS/MS; ESI-TOF; CE:17 eV; [M+H]+
Name: 2-(4-Hydroxyphenyl)propionic acid
Class: unknown
Formula: C9H10O3
Exact mass: 166.06299417999998
SMILES: CC(C(O)=O)C=1C=CC(O)=CC=1
InChI: not available
Instrument: micrOTOF-Q
Instrument type: ESI-TOF
Precursor m/z: 121.065
Precursor type: [M+H]+
Base peak: 103.055
m/z	relative intensity
77.037	273
91.054	647
92.057	56
93.069	350
95.049	613
103.054	999
104.057	98
105.045	328
121.064	678
122.072	74
