Mass spectrum: D-Panthenol; MS/MS; ESI-TOF; CE:20 eV; [M+H]+
Name: D-Panthenol
Name: (R)-(+)-2,4-Dihydroxy-N-(3-hydroxypropyl)-3,3-dimethylbutyramide
Name: (R)-2,4-Dihydroxy-3,3-dimethylbutyric 3-hydroxypropylamide
Name: Dexpanthenol
Name: Provitamin B
Name: D-Pantothenyl alcohol
Class: unknown
Formula: C9H19NO4
Exact mass: 205.131408088
SMILES: CC(C)(CO)C(O)C(=O)NCCCO
InChI: not available
Instrument: micrOTOF-Q
Instrument type: ESI-TOF
Precursor m/z: 206.14
Precursor type: [M+H]+
Base peak: 76.077
m/z	relative intensity
69.069	17
74.022	123
76.075	999
77.077	40
83.048	21
84.043	107
85.064	130
86.061	31
87.078	15
95.049	135
102.055	363
103.074	139
113.060	45
124.078	29
126.091	12
142.120	35
152.107	23
170.118	276
171.119	30
188.128	339
189.131	37
206.139	183
207.143	21
