Mass spectrum: Arbutin; MS/MS; ESI-TOF; CE:-24 eV; [M-H]-
Name: Arbutin
Name: Ursin
Name: Arbutoside
Name: Hydroquinone-beta-D-glucopyranoside
Name: Hydroquinone-O-beta-D-glucopyranoside
Name: p-Arbutin
Name: p-Hydroxyphenyl-beta-D-glucopyranoside
Name: Uvasol
Name: (2R,3S,4S,5R,6S)-2-(Hydroxymethyl)-6-(4-hydroxyphenoxy)oxane-3,4,5-triol
Name: p-Hydroxyphenyl-beta-D-glucoside
Class: unknown
Formula: C12H16O7
Exact mass: 272.089602852
SMILES: OCC2OC(OC1=CC=C(O)C=C1)C(O)C(O)C2(O)
InChI: not available
Instrument: micrOTOF-Q
Instrument type: ESI-TOF
Precursor m/z: 271.082
Precursor type: [M-H]-
Base peak: 108.022
m/z	relative intensity
85.028	11
95.012	5
101.024	9
108.021	999
109.027	115
110.028	8
113.025	8
121.029	8
123.042	21
133.029	12
134.037	5
135.045	5
151.040	16
163.040	12
