Mass spectrum: Betaine aldehyde; MS/MS; ESI-TOF; CE:10 eV; [M+H]+
Name: Betaine aldehyde
Class: unknown
Formula: C5H12NO
Exact mass: 102.091889004
SMILES: [H]C(=O)C[N+](C)(C)C
InChI: not available
Instrument: micrOTOF-Q
Instrument type: ESI-TOF
Precursor m/z: 120.102
Precursor type: [M+H]+
Base peak: 102.092
m/z	relative intensity
74.096	5
102.092	999
103.095	62
120.102	418
121.105	26
