Mass spectrum: Rosmarinicacid; MS/MS; ESI-TOF; CE:10 eV; [M-H]-
Name: Rosmarinicacid
Name: Rosmarinate
Class: unknown
Formula: C18H16O8
Exact mass: 360.084517472
SMILES: OC(=O)C(CC1=CC=C(O)C(O)=C1)OC(=O)C=CC2=CC=C(O)C(O)=C2
InChI: not available
Instrument: micrOTOF-Q
Instrument type: ESI-TOF
Precursor m/z: 359.076
Precursor type: [M-H]-
Base peak: 161.028
m/z	relative intensity
72.992	21
123.045	32
133.029	34
134.033	3
135.045	75
136.049	7
151.038	13
161.024	999
162.028	90
163.030	9
179.034	189
180.038	17
197.045	404
198.049	39
199.051	5
215.055	9
