Mass spectrum: D-Erythronolactone; MS/MS; ESI-TOF; CE:-8 eV; [M-H]-
Name: D-Erythronolactone
Name: (3R,4R)-3,4-Dihydroxyoxolan-2-one
Class: unknown
Formula: C4H6O4
Exact mass: 118.026608672
SMILES: OC1COC(=O)C1(O)
InChI: not available
Instrument: micrOTOF-Q
Instrument type: ESI-TOF
Precursor m/z: 135.03
Precursor type: [M-H]-
Base peak: 135.033
m/z	relative intensity
72.991	6
75.007	257
76.011	7
87.007	4
89.023	13
117.019	51
135.030	999
136.033	54
137.034	11
