Mass spectrum: 2-Methoxyestrone; MS/MS; ESI-TOF; CE:25 eV; [M+H]+
Name: 2-Methoxyestrone
Name: 2-Hydroxyestrone 2-methyl ether
Name: 3-Hydroxy-2-methoxy-Estra-1,3,5(10)-trien-17-one
Name: 2,3-Dihydroxy-1,3,5(10)-estratrien-17-one 2-methyl ether
Name: 2-Methoxy-17-oxoestra-1,3,5(10)-trien-3-ol
Name: 2-Methoxy-3-hydroxyestra-1,3,5(10)-trien-17-one
Name: 3-Hydroxy-2-methoxy-13-methyl-7,8,9,11,12,14,15,16-octahydro-6H-cyclopenta[a]phenanthren-17-one
Name: 3-Hydroxy-2-methoxy-1,3,5(10)-estratrien-17-one
Name: 3-Hydroxy-2-methoxyestra-1,3,5(10)-trien-17-one
Name: Methoxy-Estrone
Class: unknown
Formula: C19H24O3
Exact mass: 300.17254462799997
SMILES: [H]C23(CCC4(C)(C(=O)CCC4([H])(C3([H])(CCC=1C=C(O)C(=CC=12)OC))))
InChI: not available
Instrument: micrOTOF-Q
Instrument type: ESI-TOF
Precursor m/z: 301.181
Precursor type: [M+H]+
Base peak: 163.072
m/z	relative intensity
81.0686	63
93.0685	55
95.0866	33
107.0845	79
109.0999	40
131.0484	82
137.0593	617
138.0619	45
151.0745	83
157.0641	39
163.0750	999
164.0790	107
175.0735	97
187.0756	883
188.0765	107
189.0911	826
190.0945	96
203.1066	43
211.1118	148
212.1127	32
213.0899	67
215.1068	39
227.1065	239
228.1132	79
231.1364	59
241.1230	69
243.1376	73
251.1429	77
283.1708	391
284.1732	79
301.1813	100
