Mass spectrum: Glycochenodeoxycholic acid; MS/MS; ESI-TOF; CE:28 eV; [M+H]+
Name: Glycochenodeoxycholic acid
Name: Chenodeoxycholylglycine
Name: Glycine chenodeoxycholate
Name: Glycochenodeoxycholate
Name: N-(3Alpha,7alpha-dihydroxy-5beta-cholan-24-oyl)glycine
Name: [(3Alpha,7alpha-dihydroxy-24-oxo-5beta-cholan-24-yl)amino]acetic acid
Class: unknown
Formula: C26H43NO5
Exact mass: 449.31412347599996
SMILES: [H]C13(CC(O)CCC1(C)C4([H])(CCC2(C)(C([H])(CCC2([H])C4([H])(C(O)C3))C(C)CCC(=O)NCC(O)=O)))
InChI: not available
Instrument: micrOTOF-Q
Instrument type: ESI-TOF
Precursor m/z: 450.322
Precursor type: [M+H]+
Base peak: 414.304
m/z	relative intensity
76.037	52
81.067	15
85.062	22
93.069	8
95.085	16
105.070	9
107.086	25
109.100	14
119.086	13
121.101	30
123.115	11
125.097	9
131.086	6
133.100	18
135.116	46
137.099	9
145.101	14
147.117	40
148.120	6
149.131	62
150.135	8
151.114	9
156.065	9
158.081	163
159.107	19
161.131	81
162.136	10
163.136	30
172.097	17
173.129	12
175.147	110
176.151	14
177.129	41
178.131	5
184.097	9
185.131	16
186.118	8
187.146	22
189.160	59
190.164	10
191.144	17
197.130	5
198.113	13
199.147	15
200.132	8
201.163	184
202.166	30
203.163	17
205.162	6
210.112	7
211.147	20
212.130	32
213.159	25
214.155	5
215.178	118
216.181	23
217.174	16
224.128	21
225.162	13
226.146	29
227.174	20
229.175	28
230.176	5
231.174	16
238.143	69
239.170	19
240.161	17
241.192	13
243.200	36
244.206	6
245.192	8
250.143	25
252.159	74
253.171	13
254.192	8
255.205	6
257.192	29
258.197	5
264.158	35
265.181	8
266.175	30
267.185	6
278.175	24
279.197	5
280.192	13
292.190	27
293.204	6
294.207	7
295.240	7
297.249	16
298.257	5
304.190	36
305.194	7
306.205	24
307.212	5
308.219	5
311.263	8
318.206	21
320.222	12
321.257	190
322.260	51
323.262	5
332.221	35
333.226	10
334.238	5
339.268	438
340.271	105
341.274	15
358.241	5
396.289	10
414.300	999
415.303	294
416.306	43
432.310	9
