Mass spectrum: Pimelicacid; ; ESI-TOF; CE:10 eV; [M+H]+
Name: Pimelicacid
Name: Heptanedioic acid,6-carboxyhexanoate,Pimelate,Pimelic acid
Class: unknown
Formula: C7H12O4
Exact mass: 160.073558864
SMILES: OC(=O)CCCCCC(O)=O
InChI: not available
Instrument: micrOTOF-Q
Instrument type: ESI-TOF
Precursor m/z: 124.039
Precursor type: [M+H]+
Base peak: 183.062
m/z	relative intensity
69.073	5
79.055	12
81.034	8
97.064	17
115.075	6
125.060	11
143.070	71
144.076	9
149.023	11
161.080	423
162.084	32
163.086	5
183.063	999
184.066	78
185.068	10
201.067	7
205.048	8
224.128	4
256.029	7
278.012	4
345.117	17
359.106	4
365.121	11
373.079	3
374.072	34
375.078	44
376.082	9
377.080	8
