Mass spectrum: 2-Phenylbutyric acid; ; ESI-TOF; CE:10 eV; [M+H]+
Name: 2-Phenylbutyric acid
Name: 2-Phenylbutanoate
Name: (RS)-2-phenylbutanoate
Name: (RS)-2-phenylbutanoic acid
Name: 2-Phenylbutyrate
Name: 2-Phenyl-butyric acid
Name: a-Ethyl-a-toluate
Name: a-Ethyl-a-toluic acid
Name: a-Ethylbenzeneacetate
Name: a-Ethylbenzeneacetic acid
Name: a-Ethyl-benzeneacetic acid
Name: a-Ethylphenylacetate
Name: a-Ethylphenylacetic acid
Name: Alpha-ethyl-alpha-toluate
Name: Alpha-ethyl-alpha-toluic acid
Name: Alpha-ethylbenzeneacetate
Name: Alpha-ethylbenzeneacetic acid
Name: Alpha-ethylphenylacetate
Name: Alpha-ethylphenylacetic acid
Name: Alpha-phenyl butyric acid
Name: Alpha-phenylbutyrate
Name: a-Phenylbutyrate
Name: a-Phenylbutyric acid
Class: unknown
Formula: C10H12O2
Exact mass: 164.083729624
SMILES: CCC(C(O)=O)C=1C=CC=CC=1
InChI: not available
Instrument: micrOTOF-Q
Instrument type: ESI-TOF
Precursor m/z: 163.076
Precursor type: [M+H]+
Base peak: 119.087
m/z	relative intensity
65.038	2
91.055	393
92.058	31
119.086	999
120.089	97
121.093	5
122.095	4
144.081	4
147.080	5
149.024	6
162.093	3
164.579	2
165.091	974
166.094	94
167.096	10
183.102	95
184.101	11
187.073	338
188.076	37
189.082	4
209.055	147
210.058	15
383.098	58
384.101	14
385.110	13
386.111	3
387.096	4
