Mass spectrum: Guanidinopropionic acid; ; ESI-TOF; CE:10 eV; [M+H]+
Name: Guanidinopropionic acid
Name: 3-Carbamimidamidopropanoic acid
Name: 3-Guanidinopropanoate
Name: 3-Guanidinopropanoic acid
Name: 3-Guanidinopropionic acid
Name: Beta-guanadinopropionate
Name: Beta-guanidinopropionic acid
Name: N-(Aminoiminomethyl)-beta-alanine
Class: unknown
Formula: C4H9N3O2
Exact mass: 131.069476528
SMILES: NC(=N)NCCC(O)=O
InChI: not available
Instrument: micrOTOF-Q
Instrument type: ESI-TOF
Precursor m/z: 130.06
Precursor type: [M+H]+
Base peak: 132.079
m/z	relative intensity
72.054	28
73.033	2
86.035	2
90.055	58
91.057	2
97.039	3
98.026	1
114.067	62
115.051	41
116.052	2
131.676	2
132.078	999
133.079	59
134.081	6
263.145	52
264.148	5
