Mass spectrum: 2,6-DI-TERT-BUTYL-4-METHYLPHENOL; EI-MS
Formula: C15H24O
Exact mass: 220.18272
Instrument type: EI-MS
m/z	relative intensity
41	40
55	60
57	240
69	2
105	40
119	20
131	20
145	10
177	40
189	20
205	999
206	15
220	280
221	40
