Mass spectrum: HEXAMETHYLDISILOXANE; EI-MS
Formula: C6H18OSi2
Exact mass: 162.08962
Instrument type: EI-MS
m/z	relative intensity
43	20
44	10
45	56
52	35
59	60
66	104
66.5	15
73	145
74	12
75	13
87	10
117	10
131	43
132	10
133	12
147	999
148	155
149	77
150	10
