Mass spectrum: 3-PENTANONE; EI-MS
Formula: C5H10O
Exact mass: 86.07316
Instrument type: EI-MS
m/z	relative intensity
15	13
26	60
27	263
28	40
29	748
30	14
39	29
41	17
42	39
43	22
53	11
55	15
56	40
57	999
58	37
86	179
