Mass spectrum: 4,4-DIAMINO-1,2-DIPHENYLETHANE; EI-MS
Formula: C14H16N2
Exact mass: 212.13135
Instrument type: EI-MS
m/z	relative intensity
77	10
79	10
106	999
107	88
134	39
212	143
213	23
