Mass spectrum: DIBROMOCHLOROMETHANE; EI-MS
Formula: CHBr2Cl
Exact mass: 205.81335
Instrument type: EI-MS
m/z	relative intensity
47	137
48	146
49	163
79	84
81	81
91	84
93	93
127	77
128	79
129	999
130	80
131	25
208	81
210	52
