Mass spectrum: 1-ETHYLCYCLOHEXYL 3-OXOBUTANOATE; EI-MS
Formula: C12H20O3
Exact mass: 212.14124
Instrument type: EI-MS
m/z	relative intensity
27	176
29	261
41	246
43	926
55	185
57	291
69	359
72	185
81	826
85	909
99	999
100	141
110	159
111	133
128	83
142	44
