Mass spectrum: CARBITOL; EI-MS
Name: 2-(2-ETHOXYETHOXY)ETHANOL
Formula: C6H14O3
Exact mass: 134.09429
Instrument type: EI-MS
m/z	relative intensity
27	13
28	27
29	82
31	303
33	19
41	21
43	63
44	55
45	999
46	28
47	14
59	485
60	132
61	27
62	24
72	436
73	182
74	12
75	84
89	17
101	21
103	52
104	75
116	10
