Mass spectrum: BENZYL LAURATE; EI-MS
Formula: C19H30O2
Exact mass: 290.22458
Instrument type: EI-MS
m/z	relative intensity
27	57
29	102
39	64
41	271
42	53
43	322
51	27
53	13
54	13
55	128
56	35
57	208
58	12
63	16
65	91
67	23
69	51
70	14
71	61
77	50
78	15
79	47
81	18
83	59
84	18
85	40
89	27
90	60
91	999
92	202
93	17
95	27
96	11
97	54
98	19
101	11
105	19
107	44
108	453
109	43
111	22
125	14
139	13
163	24
181	27
183	28
199	34
290	12
