Mass spectrum: 2,4-HEPTADIENAL; EI-MS
Formula: C7H10O
Exact mass: 110.07316
Instrument type: EI-MS
m/z	relative intensity
39	121
40	30
41	280
42	15
53	211
54	30
55	45
65	45
66	45
67	205
68	90
77	30
79	99
81	999
82	99
91	142
94	27
95	60
107	30
109	15
110	154
