Mass spectrum: 1,4,5-TRIMETHYL-2-PYRAZOLINE; EI-MS
Formula: C6H12N2
Exact mass: 112.10005
Instrument type: EI-MS
m/z	relative intensity
26	21
27	104
28	250
29	8
30	96
38	8
39	83
40	2
41	150
42	254
43	67
44	1
51	10
52	10
53	31
54	3
55	46
56	500
57	50
58	1
67	8
68	19
69	19
70	5
80	5
81	12
82	24
83	1
95	22
96	9
97	999
98	6
111	42
112	250
113	20
