Mass spectrum: 4,4,-DIAMINO-1,2-DIPHENYLETHANE; EI-MS
Name: 4,4,-DIAMINOBIBENZYL
Formula: C14H16N2
Exact mass: 212.13135
Instrument type: EI-MS
m/z	relative intensity
106	999
107	85
134	61
212	41
213	67
