Mass spectrum: (2E)-6ACETOXY-2-METHYLHEXENAL; EI-MS
Formula: C9H14O3
Exact mass: 170.09429
Instrument type: EI-MS
m/z	relative intensity
18	22
42	13
43	112
66	2
67	29
69	11
81	20
82	51
83	15
94	16
95	140
97	11
109	47
110	999
111	68
113	5
127	44
128	88
