Mass spectrum: CHARTREUSIN; EI-MS
Formula: C32H32O14
Exact mass: 640.17921
Instrument type: EI-MS
m/z	relative intensity
27	32
28	104
29	47
39	26
41	52
43	64
44	146
45	51
55	39
57	61
58	51
59	48
60	29
71	26
73	66
74	76
75	56
83	30
85	60
87	330
88	33
89	67
101	50
111	45
129	48
143	28
146	165
157	24
161	29
165	36
167	52
250	50
306	53
334	999
335	217
336	37
