Mass spectrum: CYCLOHEXANONE; EI-MS
Formula: C6H10O
Exact mass: 98.07316
Instrument type: EI-MS
m/z	relative intensity
53	57
54	94
55	999
56	166
57	113
58	28
60	126
67	74
68	65
69	336
70	362
71	89
73	87
74	24
75	22
77	24
79	71
80	87
81	180
82	61
83	221
84	40
85	23
87	26
96	38
97	319
98	998
99	283
100	34
