Mass spectrum: 2-METHYL-4-AMINO-PYRIMIDINE; EI-MS
Formula: C5H7N3
Exact mass: 109.064
Instrument type: EI-MS
m/z	relative intensity
15	55
26	44
28	64
39	34
40	192
41	629
42	377
43	46
52	47
66	37
67	96
68	113
69	184
81	45
82	119
93	43
109	999
110	98
