Mass spectrum: ESTRONE; EI-MS
Formula: C18H22O2
Exact mass: 270.16198
Instrument type: EI-MS
m/z	relative intensity
18	18
27	44
28	38
29	43
39	63
40	14
41	106
42	18
43	18
51	24
52	11
53	49
54	11
55	77
57	12
63	17
65	35
66	12
67	56
68	13
69	14
77	78
78	21
79	62
81	36
82	11
85	11
89	16
91	89
92	24
93	21
95	16
97	40
102	13
103	37
104	12
105	53
107	81
108	21
115	121
116	42
117	41
119	17
120	73
121	36
123	20
127	67
128	67
129	43
130	12
131	110
132	43
133	130
134	20
135	12
139	11
141	41
142	13
143	13
144	98
145	162
146	299
147	77
148	11
150	11
152	22
153	20
154	11
155	13
157	129
158	111
159	169
160	153
161	24
165	24
167	11
169	17
170	53
171	61
172	223
173	57
174	15
181	16
182	11
183	21
184	21
185	254
186	100
187	17
195	12
197	23
198	16
199	62
200	24
210	12
211	47
212	21
213	173
214	109
215	18
226	55
227	24
228	15
237	19
241	11
242	48
255	12
268	12
269	24
270	999
271	202
272	25
