Mass spectrum: 2,3-DIBROMO-2-METHYLPROPIONIC ACID METHYLESTER; EI-MS
Formula: C5H8Br2O2
Exact mass: 257.8891
Instrument type: EI-MS
m/z	relative intensity
43	77
44	25
53	38
55	14
57	51
59	792
60	12
69	999
70	51
71	12
82	25
85	5
89	38
99	220
100	454
119	17
120	194
121	181
122	194
151	25
153	220
179	766
180	38
181	75
182	12
199	51
201	77
203	3
217	12
