Mass spectrum: 5-HYDROXYPYRAZINE-2-CARBOXAMIDE; EI-MS
Formula: C5H5N3O2
Exact mass: 139.03818
Instrument type: EI-MS
m/z	relative intensity
12	12
14	48
16	47
17	31
25	26
26	48
27	81
28	999
29	200
38	176
39	335
40	90
41	520
42	231
43	48
44	57
45	26
51	88
52	127
53	17
54	44
55	82
56	289
57	3
65	29
66	62
67	260
68	83
69	85
82	28
83	56
84	7
94	44
95	830
96	303
111	17
122	16
123	93
139	730
140	83
