Mass spectrum: ISOPROPYL PARA TOLUATE; EI-MS
Name: PARA TOLUIC ACID ISOPROPYL ESTER
Formula: C11H14O2
Exact mass: 178.09938
Instrument type: EI-MS
m/z	relative intensity
27	27
39	50
41	65
43	98
51	12
59	186
63	21
65	123
89	27
90	18
91	432
92	72
93	12
119	999
120	144
121	11
136	426
137	78
163	25
178	98
179	9
