Mass spectrum: ACETIC ACID SEC-BUTYL ESTER; EI-MS
Name: SEC-BUTYL ACETATE
Formula: C6H12O2
Exact mass: 116.08373
Instrument type: EI-MS
m/z	relative intensity
15	30
27	37
28	22
29	73
39	24
41	116
42	18
43	999
44	24
45	28
55	26
56	196
57	60
61	42
72	10
73	43
87	148
101	26
