Mass spectrum: METHYL DECANOATE; EI-MS
Name: METHYL CAPRATE
Formula: C11H22O2
Exact mass: 186.16198
Instrument type: EI-MS
m/z	relative intensity
29	26
41	46
42	12
43	172
55	83
56	19
57	65
59	51
69	64
70	11
71	34
73	14
74	999
75	126
83	29
84	31
85	15
87	519
88	52
97	17
98	19
101	52
115	12
129	28
143	86
155	42
157	12
186	15
187	3
