Mass spectrum: FURFURYL ACETATE; EI-MS
Formula: C7H8O3
Exact mass: 140.04734
Instrument type: EI-MS
m/z	relative intensity
27	63
39	23
41	55
42	36
43	421
44	17
51	15
52	432
53	271
54	15
55	19
61	21
69	51
70	42
79	13
80	241
81	999
82	61
95	11
97	121
98	761
99	46
104	28
140	549
141	47
