Mass spectrum: BUTYL LACTATE; EI-MS
Formula: C7H14O3
Exact mass: 146.09429
Instrument type: EI-MS
m/z	relative intensity
15	16
19	16
26	12
27	11
29	160
30	10
31	15
32	1
39	45
41	182
42	17
43	8
44	16
45	999
46	21
55	3
56	88
57	207
75	45
85	50
