Mass spectrum: 1-ISOPROPYL-1-METHYLHYDRAZINE; EI-MS
Formula: C4H12N2
Exact mass: 88.10005
Instrument type: EI-MS
m/z	relative intensity
26	15
27	123
28	260
29	12
30	119
31	115
38	10
39	8
40	18
41	137
42	151
43	16
44	151
45	411
46	164
54	2
55	19
56	384
57	55
58	3
59	21
70	27
71	9
72	2
73	999
74	51
87	14
88	48
89	47
