Mass spectrum: METHYL BUTYRATE; EI-MS
Name: BUTANOIC ACID METHYL ESTER
Formula: C5H10O2
Exact mass: 102.06808
Instrument type: EI-MS
m/z	relative intensity
14	13
15	249
26	46
27	352
28	69
29	120
30	14
31	50
33	11
37	10
38	28
39	210
40	31
41	382
42	179
43	999
44	49
45	48
55	99
59	261
69	14
71	593
72	27
74	776
75	28
87	200
102	15
