Mass spectrum: 2,4,6-TRICHLOROPHENYL ACETATE; EI-MS
Formula: C8H5Cl3O2
Exact mass: 237.93551
Instrument type: EI-MS
m/z	relative intensity
35	27
42	31
43	999
44	3
61	45
62	48
72	24
73	3
74	20
83	24
96	24
97	11
99	38
107	41
109	38
132	4
133	20
134	34
160	31
162	2
167	45
169	41
195	13
196	49
197	55
198	479
199	34
200	16
238	115
240	111
242	34
