Mass spectrum: 1-METHOXYCARBONYL-4-(1,5-DIMETHYL-3-OXOHEX-4-ENYL)-CYCLOHEXENE; EI-MS
Formula: C16H24O3
Exact mass: 264.17254
Instrument type: EI-MS
m/z	relative intensity
27	67
28	23
29	130
39	9
40	20
41	88
42	10
43	1
45	13
51	20
52	13
53	9
54	27
55	280
56	20
57	1
59	50
65	20
66	10
67	4
68	12
69	30
77	70
78	0
79	140
80	24
81	30
82	3
83	999
84	57
85	15
91	6
92	10
93	37
95	18
97	0
98	182
99	94
105	57
106	2
107	118
108	17
109	13
111	2
121	20
123	13
125	176
126	5
131	36
133	24
134	270
135	1
136	18
137	70
138	20
139	7
140	14
147	14
148	10
149	6
150	18
151	100
152	19
161	2
163	20
164	28
165	25
166	2
167	35
175	8
177	12
179	1
180	5
204	46
205	37
209	0
232	120
233	30
234	8
246	1
247	8
249	27
264	67
265	25
