Mass spectrum: METHYL (E)-4-CARBAMOYLOXY-2-PENTENOATE; EI-MS
Formula: C7H11NO4
Exact mass: 173.06881
Instrument type: EI-MS
m/z	relative intensity
43	11
55	38
70	54
71	599
81	44
82	121
87	999
88	38
96	20
97	53
98	181
99	149
100	40
101	40
112	55
113	366
114	95
115	20
116	16
130	965
131	90
141	383
142	37
174	27
