Mass spectrum: 1,3,5-TRIISOPROPYLBENZENE; EI-MS
Formula: C15H24
Exact mass: 204.1878
Instrument type: EI-MS
m/z	relative intensity
43	305
51	11
53	14
65	18
71	11
73	10
77	29
78	12
79	42
87	65
91	151
92	13
103	13
105	134
106	13
115	32
116	18
117	35
119	57
128	26
129	23
130	10
131	31
133	60
145	25
147	41
161	438
162	60
173	22
189	999
190	155
191	12
204	311
205	53
