Mass spectrum: GERANYL ACETATE; EI-MS
Name: ACETIC ACID (E)-3,7-DIMETHYL-2,6-OCTADIEN-1-OL ESTER
Formula: C12H20O2
Exact mass: 196.14633
Instrument type: EI-MS
m/z	relative intensity
55	25
68	612
69	999
80	246
85	93
92	122
93	459
107	72
108	32
121	220
123	35
136	256
137	30
154	30
