Mass spectrum: FURFURYL ACETATE; EI-MS
Formula: C7H8O3
Exact mass: 140.04734
Instrument type: EI-MS
m/z	relative intensity
27	130
29	20
39	48
41	120
42	92
43	680
44	20
50	10
51	20
52	771
53	516
54	20
55	20
68	10
69	100
70	51
79	10
80	180
81	999
82	80
97	120
98	663
99	37
140	467
141	23
