Mass spectrum: PHENYL PROPIONATE; EI-MS
Formula: C9H10O2
Exact mass: 150.06808
Instrument type: EI-MS
m/z	relative intensity
26	16
27	87
28	36
29	395
38	27
39	125
40	21
50	17
51	41
55	25
56	27
57	485
58	15
63	24
64	12
65	93
66	63
77	54
93	10
94	999
95	74
150	199
151	20
