Mass spectrum: 2,5-HEXANEDIOL; EI-MS
Name: 2,5-DIHYDROXYHEXANE
Formula: C6H14O2
Exact mass: 118.09938
Instrument type: EI-MS
m/z	relative intensity
15	25
19	30
27	85
28	78
29	158
31	40
39	43
40	21
41	486
42	31
43	388
44	41
45	759
46	15
55	124
56	999
57	194
58	182
59	21
67	101
71	14
83	16
85	369
86	17
