Mass spectrum: N-METHYLFORMAMIDE; EI-MS
Name: N-FORMYLMETHYLAMINE
Formula: C2H5NO
Exact mass: 59.03711
Instrument type: EI-MS
m/z	relative intensity
12	10
13	21
14	38
15	137
16	15
18	9
26	12
27	117
28	857
29	365
30	999
31	39
32	13
38	12
39	13
40	17
41	26
42	16
43	23
44	13
58	74
59	807
60	67
