Mass spectrum: DIAZOAMINOBENZENE; EI-MS
Formula: C12H11N3
Exact mass: 197.0953
Instrument type: EI-MS
m/z	relative intensity
27	11
28	8
37	4
38	13
39	53
40	6
41	4
50	31
51	169
52	17
62	7
63	20
64	18
65	93
66	19
74	10
75	8
76	13
77	999
78	77
79	3
91	12
92	61
93	78
94	6
105	575
106	45
107	2
115	6
141	11
142	5
166	4
167	32
168	38
169	17
170	2
197	90
198	14
