Mass spectrum: DI-SEC-BUTYL DISULFIDE; EI-MS
Name: DI-SEC-BUTYL DISULFANE
Formula: C8H18S2
Exact mass: 178.08499
Instrument type: EI-MS
m/z	relative intensity
27	89
28	18
29	313
39	76
41	288
42	11
45	28
47	12
53	14
55	56
56	43
57	999
58	40
59	53
60	17
61	26
64	10
66	15
88	13
93	17
122	286
123	15
124	23
178	198
179	18
180	16
