Mass spectrum: 3-METHYLBUTYL LACTATE; EI-MS
Name: ISOAMYL LACTATE
Formula: C8H16O3
Exact mass: 160.10994
Instrument type: EI-MS
m/z	relative intensity
15	21
19	18
26	11
27	15
29	118
31	17
39	79
41	19
42	65
43	642
44	33
45	999
46	23
53	13
55	191
56	3
57	18
63	10
69	21
70	27
71	210
72	12
75	26
91	13
