Mass spectrum: 4-TRIMETHYLSILYLPHENOL; EI-MS
Formula: C9H14OSi
Exact mass: 166.08139
Instrument type: EI-MS
m/z	relative intensity
43	25
45	42
47	14
51	45
59	13
61	19
65	13
68	11
73	65
75	85
76	21
77	90
91	75
95	34
121	21
123	12
135	34
151	999
152	144
153	46
166	269
167	42
168	12
