Mass spectrum: 3-METHYL-4-NITROPHENYL PENTAFLUOROBENZYL ETHER; EI-MS
Formula: C14H8F5NO3
Exact mass: 333.04243
Instrument type: EI-MS
m/z	relative intensity
51	64
52	53
53	9
62	1
63	23
69	11
75	13
77	3
78	24
80	9
81	14
89	1
93	13
131	16
136	13
152	0
155	13
161	36
162	13
181	999
182	107
262	11
316	13
333	22
334	38
