Mass spectrum: ISOPROPYL ISOBUTYRATE; EI-MS
Formula: C7H14O2
Exact mass: 130.09938
Instrument type: EI-MS
m/z	relative intensity
15	14
18	14
27	103
29	12
39	58
40	13
41	202
42	61
43	999
44	35
45	53
59	41
71	336
72	16
73	19
88	18
89	137
115	30
