Mass spectrum: 1-OCTANOL; EI-MS
Formula: C8H18O
Exact mass: 130.13577
Instrument type: EI-MS
m/z	relative intensity
27	38
28	20
29	154
31	124
39	16
41	448
42	428
43	560
44	30
45	28
53	15
54	45
55	748
56	999
57	380
58	18
67	41
68	239
69	647
70	762
71	113
73	33
82	116
83	541
84	731
85	52
97	47
112	63
113	11
