Mass spectrum: FURFURYL MERCAPTAN; EI-MS
Formula: C5H6OS
Exact mass: 114.01394
Instrument type: EI-MS
m/z	relative intensity
26	48
27	221
29	67
32	12
33	44
37	38
38	65
39	114
41	26
42	25
45	195
46	20
47	39
49	22
50	118
51	178
52	116
53	778
54	40
57	27
58	41
59	32
69	21
81	999
82	84
85	41
114	381
115	23
116	15
