Mass spectrum: CIS-3-HEXENAL DIETHYL ACETAL; EI-MS
Formula: C10H20O2
Exact mass: 172.14633
Instrument type: EI-MS
m/z	relative intensity
15	13
19	19
26	11
27	204
28	34
29	400
31	44
39	111
40	296
41	296
42	35
43	100
44	28
45	50
47	999
53	47
54	17
55	200
56	12
57	97
59	19
67	23
69	69
70	11
72	11
75	560
76	15
81	170
82	11
83	46
85	45
103	859
104	46
127	171
128	13
