Mass spectrum: 1-TRIMETHYLSILYLMETHYL-4-ISOPROPENYLCYCLOHEXENE; EI-MS
Formula: C13H24Si
Exact mass: 208.16473
Instrument type: EI-MS
m/z	relative intensity
42	27
43	32
45	61
53	12
58	17
59	57
67	12
72	10
73	999
74	83
75	46
77	17
79	16
91	22
92	17
93	30
94	12
98	39
105	11
119	19
125	14
134	75
135	11
140	25
149	10
151	10
208	52
209	11
