Mass spectrum: ANTHRAQUINONE; EI-MS
Formula: C14H8O2
Exact mass: 208.05243
Instrument type: EI-MS
m/z	relative intensity
28	16
32	12
50	94
51	23
63	50
74	69
75	120
76	245
77	59
89	15
90	28
105	19
126	84
149	73
150	145
151	296
152	677
153	85
176	17
178	211
179	52
180	983
181	124
207	146
208	999
209	184
