Mass spectrum: 2-BUTYL-4-ETHYL-5-METHYLOXAZOLE; EI-MS
Formula: C10H17NO
Exact mass: 167.13101
Instrument type: EI-MS
m/z	relative intensity
41	90
42	41
43	382
54	49
55	14
56	142
57	30
68	20
69	330
82	300
83	20
84	280
85	20
94	19
96	80
110	210
124	350
125	999
126	272
138	528
139	260
140	20
152	292
153	29
166	51
167	370
168	69
