Mass spectrum: (2S,3R,4S)-3-(TERT-BUTYLDIMETHYLSILYLOXY)-2,4-DIMETHYLHEXANOL; EI-MS
Formula: C14H32O2Si
Exact mass: 260.21716
Instrument type: EI-MS
m/z	relative intensity
41	82
43	123
55	33
56	20
58	164
68	25
69	82
70	12
71	25
73	213
75	848
76	7
81	33
83	33
84	25
89	64
90	25
93	41
95	107
98	6
105	148
110	90
111	788
115	3
117	41
119	304
120	172
121	7
131	41
133	394
134	156
135	3
145	697
147	49
148	33
161	8
175	33
185	74
187	41
200	4
201	727
202	33
203	999
204	30
205	66
231	131
