Mass spectrum: 2-METHYLALLYLPENTAMETHYLDISILANE; EI-MS
Formula: C9H22Si2
Exact mass: 186.126
Instrument type: EI-MS
m/z	relative intensity
41	44
45	38
59	68
73	499
74	52
75	102
85	57
97	57
112	177
113	213
114	32
115	33
129	81
131	999
132	170
133	127
171	155
186	241
187	51
