Mass spectrum: 4-ETHYL-2,6-DIMETHYLPYRIDINE; EI-MS
Formula: C9H13N
Exact mass: 135.1048
Instrument type: EI-MS
m/z	relative intensity
27	178
28	52
29	20
38	35
39	208
40	19
41	16
42	165
50	13
51	109
52	38
53	92
62	21
63	68
64	15
65	101
77	183
78	16
79	160
80	11
91	84
92	11
93	67
105	10
106	46
107	56
119	20
120	369
121	104
134	149
135	999
136	101
