Mass spectrum: 2,5-DIHYDROXYACETOPHENONE; EI-MS
Formula: C8H8O3
Exact mass: 152.04734
Instrument type: EI-MS
m/z	relative intensity
43	59
53	33
55	11
77	14
78	19
81	133
82	16
108	12
109	165
110	27
134	42
137	999
138	77
151	19
152	852
153	74
