Mass spectrum: TRIDECANOL; EI-MS
Formula: C13H28O
Exact mass: 200.21402
Instrument type: EI-MS
m/z	relative intensity
41	393
42	272
43	675
44	62
54	69
55	895
56	813
58	66
59	33
66	134
67	423
69	954
70	944
71	344
74	53
78	33
80	33
81	557
83	999
84	616
85	193
96	180
97	534
98	279
99	79
104	33
106	26
108	157
110	49
111	305
112	180
114	53
119	26
123	7
125	128
126	92
127	46
128	46
134	62
135	36
140	62
144	16
145	30
154	118
165	36
166	36
182	66
