Mass spectrum: 9H-THIOXANTHENE; EI-MS
Formula: C13H10S
Exact mass: 198.05032
Instrument type: EI-MS
m/z	relative intensity
39	21
45	12
50	9
51	10
63	24
69	23
89	11
121	10
139	15
151	11
152	51
153	26
163	26
164	17
165	171
166	25
171	33
195	35
196	15
197	901
198	999
199	195
200	60
201	8
