Mass spectrum: DIETHYL PHTHALATE; EI-MS
Formula: C12H14O4
Exact mass: 222.08921
Instrument type: EI-MS
m/z	relative intensity
43	18
50	71
51	21
65	100
66	16
74	16
77	45
93	7
104	56
105	8
132	16
149	999
150	113
151	1
176	98
177	300
178	64
194	1
222	112
223	24
