Mass spectrum: XANTHENE-9-CARBOXYLIC ACID TRIMETHYLSILYLESTER; EI-MS
Name: TRIMETHYLSILYL XANTHENE-9-CARBOXYLATE
Formula: C17H18O3Si
Exact mass: 298.10252
Instrument type: EI-MS
m/z	relative intensity
44	114
45	438
47	68
73	80
74	69
75	137
152	108
181	999
182	156
254	61
269	455
270	104
