Mass spectrum: 3-TRIMETHYLSILYLOXYCHOLEST-5-ENE; EI-MS
Formula: C30H54OSi
Exact mass: 458.39439
Instrument type: EI-MS
m/z	relative intensity
57	157
69	70
71	114
73	38
75	77
81	194
83	144
85	44
93	34
95	251
96	16
97	92
105	34
106	24
107	190
108	35
109	137
111	65
119	83
120	92
121	255
122	26
123	60
125	25
127	9
129	999
130	137
131	96
132	15
133	73
134	20
135	101
137	36
139	6
143	83
144	10
145	136
146	40
147	105
148	39
149	72
151	24
155	46
159	71
160	101
161	111
162	23
163	83
165	22
173	30
175	38
177	25
179	9
189	29
191	5
193	22
199	14
201	18
203	39
205	8
206	12
213	52
214	9
215	31
217	46
219	25
226	9
227	10
228	13
233	30
245	14
247	151
248	24
254	110
255	19
258	15
274	15
275	63
276	3
301	19
326	10
327	34
329	958
330	187
331	21
340	3
353	178
354	62
355	3
368	396
369	102
370	12
443	81
