Mass spectrum: PARA-CYMENE; EI-MS
Name: 1-METHYL-4-(1-METHYLETHYL)BENZENE
Formula: C10H14
Exact mass: 134.10955
Instrument type: EI-MS
m/z	relative intensity
120	99
134	331
135	30
