Mass spectrum: DIBUTYL CARBONATE; EI-MS
Formula: C9H18O3
Exact mass: 174.12559
Instrument type: EI-MS
m/z	relative intensity
43	60
45	24
54	179
55	557
56	999
57	51
63	397
73	13
89	20
118	87
119	90
