Mass spectrum: BENZOPHENONE; EI-MS
Formula: C13H10O
Exact mass: 182.07316
Instrument type: EI-MS
m/z	relative intensity
17	10
18	40
50	45
51	175
74	16
75	15
76	41
77	54
78	32
105	999
106	77
152	2
153	15
154	15
181	56
182	46
183	64
