Mass spectrum: 4-PIPEROYLMORPHOLINE; EI-MS
Name: N-(5-(3,4-METHYLENEDIOXYPHENYL)-2,4-PENTADIENOYL)MORPHOLINE
Formula: C16H17NO4
Exact mass: 287.11576
Instrument type: EI-MS
m/z	relative intensity
86	35
114	20
115	178
116	4
117	14
135	12
139	15
143	12
144	37
159	28
171	90
172	12
173	333
174	92
200	100
201	999
202	174
203	15
229	10
259	1
286	17
287	619
288	111
289	12
