Mass spectrum: TRICROTYLHYDRAZINE; EI-MS
Name: TRI(2-BUTENYL)HYDRAZINE
Formula: C12H22N2
Exact mass: 194.1783
Instrument type: EI-MS
m/z	relative intensity
27	90
28	44
29	201
30	3
31	12
39	81
40	9
41	11
42	35
43	42
44	36
45	1
53	40
54	21
55	999
56	7
57	19
58	9
67	15
68	7
69	30
70	23
81	9
82	1
83	34
85	109
86	12
137	1
139	363
140	56
141	11
182	1
184	40
185	6
