Mass spectrum: N-BUTYL PROPIONATE; EI-MS
Formula: C7H14O2
Exact mass: 130.09938
Instrument type: EI-MS
m/z	relative intensity
15	10
26	23
27	161
28	84
29	521
30	15
31	33
39	43
40	10
41	193
42	13
43	31
55	71
56	489
57	999
58	36
71	34
73	19
74	36
75	368
76	14
87	89
101	14
