Mass spectrum: BIS(CHLOROMETHYL) ETHER; EI-MS
Formula: C2H4Cl2O
Exact mass: 113.96392
Instrument type: EI-MS
m/z	relative intensity
29	93
35	28
48	29
49	38
50	19
51	119
78	56
79	999
80	37
81	332
