Mass spectrum: METHYL ISOVALERATE; EI-MS
Name: 3-METHYLBUTANOIC ACID METHYL ESTER
Formula: C6H12O2
Exact mass: 116.08373
Instrument type: EI-MS
m/z	relative intensity
15	160
27	112
28	21
29	163
31	29
38	12
39	128
40	21
41	276
42	52
43	347
44	20
45	12
53	12
55	32
56	43
57	258
58	12
59	206
69	50
73	29
74	999
75	41
85	303
86	17
101	137
116	29
