Mass spectrum: ISOPROPYLBENZENE; EI-MS
Formula: C9H12
Exact mass: 120.0939
Instrument type: EI-MS
m/z	relative intensity
27	9
41	14
77	46
78	18
79	77
91	33
103	33
104	27
105	999
106	92
119	12
120	324
121	32
