Mass spectrum: 4-(TRIMETHYLSILYL)OXY-CINNAMIC ACID TRIMETHYLSILYL ESTER; EI-MS
Name: TRIMETHYLSILYL 4-TRIMETHYLSILOXYCINNAMATE
Formula: C15H24O3Si2
Exact mass: 308.1264
Instrument type: EI-MS
m/z	relative intensity
45	135
73	999
74	85
75	12
115	60
139	105
147	95
175	7
179	215
191	80
192	65
203	9
219	970
220	185
221	55
223	6
233	65
249	560
250	140
251	6
293	860
294	210
295	80
308	52
309	150
310	60
