Mass spectrum: 5-BROMO-4-METHOXYOCT-1-ENE; EI-MS
Formula: C9H17BrO
Exact mass: 220.04628
Instrument type: EI-MS
m/z	relative intensity
41	141
55	72
57	273
67	65
77	31
81	91
91	51
95	54
105	63
115	32
119	38
121	34
128	28
129	32
131	28
145	118
161	57
163	27
177	60
189	42
203	28
205	999
206	153
220	268
221	49
