Mass spectrum: DIETHYLENE GLYCOL DIMETHYL ETHER; EI-MS
Name: BIS(2-METHOXYETHYL) ETHER
Formula: C6H14O3
Exact mass: 134.09429
Instrument type: EI-MS
m/z	relative intensity
15	101
27	31
28	25
29	273
31	297
41	17
43	82
45	283
58	403
59	999
60	34
87	17
89	195
90	9
