Mass spectrum: 1-BUTYL-5-FLUOROURACIL; EI-MS
Formula: C8H11FN2O2
Exact mass: 186.08046
Instrument type: EI-MS
m/z	relative intensity
27	160
28	200
29	330
31	1
39	140
40	40
41	260
42	1
44	80
45	130
55	90
56	1
57	160
58	100
59	60
60	0
72	70
73	40
74	130
75	1
84	60
86	50
87	360
88	1
100	710
101	210
102	60
114	3
115	80
130	999
131	330
132	1
142	40
143	430
144	480
145	1
157	180
158	40
167	50
168	0
169	270
170	50
171	110
185	3
186	950
187	250
