Mass spectrum: TRANS-2-BENZYL-6-METHYLCYCLOHEXANONE; EI-MS
Formula: C14H18O
Exact mass: 202.13577
Instrument type: EI-MS
m/z	relative intensity
43	58
55	173
57	61
65	91
67	39
77	41
83	68
91	999
92	151
104	55
105	32
111	81
115	57
117	128
118	40
129	50
131	60
143	60
145	68
158	33
159	133
187	56
202	304
203	48
