Mass spectrum: DIMETHYL GLUTARATE; EI-MS
Formula: C7H12O4
Exact mass: 160.07356
Instrument type: EI-MS
m/z	relative intensity
15	515
18	39
27	93
29	121
31	42
39	96
40	23
41	216
42	280
43	175
45	44
55	461
56	39
58	87
59	999
60	35
68	24
69	44
70	23
72	55
74	96
85	34
87	159
97	86
100	585
101	435
102	23
128	328
129	548
130	46
