Mass spectrum: 1,5-PENTANEDIOL; EI-MS
Formula: C5H12O2
Exact mass: 104.08373
Instrument type: EI-MS
m/z	relative intensity
15	16
19	28
26	22
27	267
28	160
29	443
30	41
31	999
33	27
39	138
40	52
41	593
42	110
43	289
44	306
45	97
53	32
55	243
56	392
57	281
58	37
61	22
67	178
68	176
69	42
71	19
73	52
74	84
85	10
87	10
