Mass spectrum: METHYL 4-PHENYL-2-OXO-3-BUTENOATE; EI-MS
Formula: C11H10O3
Exact mass: 190.06299
Instrument type: EI-MS
m/z	relative intensity
32	19
45	33
50	30
51	11
76	16
77	202
102	50
103	43
104	38
128	16
131	999
132	10
135	16
148	16
190	31
