Mass spectrum: CYCLOHEXANONE; EI-MS
Formula: C6H10O
Exact mass: 98.07316
Instrument type: EI-MS
m/z	relative intensity
27	32
28	44
29	39
39	3
40	30
41	219
42	622
43	14
54	86
55	999
56	115
57	2
69	365
70	264
71	21
80	8
83	122
97	33
98	568
99	38
