Mass spectrum: BETA-ELEMENE; EI-MS
Formula: C15H24
Exact mass: 204.1878
Instrument type: EI-MS
m/z	relative intensity
26	16
27	416
28	95
29	33
37	6
38	17
39	525
40	17
41	943
42	103
43	165
44	1
50	17
51	92
52	56
53	51
54	48
55	495
56	36
57	5
58	6
62	5
63	25
64	2
65	133
66	96
67	555
68	81
69	227
70	17
71	10
72	1
73	5
74	5
75	12
76	1
77	270
78	81
79	433
80	2
81	999
82	100
83	30
84	1
85	5
86	5
87	5
89	1
90	15
91	305
92	105
93	67
94	205
95	200
96	25
97	1
102	5
103	23
104	15
105	23
106	92
107	416
108	213
109	1
110	12
115	22
116	10
117	3
118	12
119	182
120	78
121	3
122	92
123	100
124	10
127	1
128	11
129	10
130	5
131	2
132	8
133	166
134	87
135	16
136	58
137	6
145	15
146	1
147	237
148	108
149	55
150	1
159	6
160	6
161	215
162	7
163	35
175	45
176	26
177	1
187	5
189	197
190	30
204	8
205	13
30	8
