Mass spectrum: 2,2,5,5-TETRAMETHYL-3-(TRIMETHYLSILYLMETHYL)-3-VINYLCYCLOPENTANONE; EI-MS
Formula: C15H28OSi
Exact mass: 252.19094
Instrument type: EI-MS
m/z	relative intensity
42	67
43	43
45	98
55	46
59	110
67	80
73	999
74	86
75	150
81	50
91	36
93	37
95	541
96	47
107	33
113	35
119	34
144	40
147	39
153	51
158	161
168	54
179	35
181	70
185	238
186	37
196	38
209	43
237	127
238	33
252	133
253	31
