Mass spectrum: ALPHA-METHYLBENZYL BUTYRATE; EI-MS
Name: METHYL PHENYL CARBINYL BUTYRATE
Formula: C12H16O2
Exact mass: 192.11503
Instrument type: EI-MS
m/z	relative intensity
15	11
27	172
28	15
29	19
39	100
41	114
42	22
43	418
44	10
50	29
51	122
52	25
53	13
55	11
63	20
65	14
71	344
72	11
76	12
77	285
78	134
79	148
89	16
91	14
102	15
103	135
104	718
105	999
106	91
107	59
121	56
122	731
123	66
192	117
193	13
