Mass spectrum: BENZALDEHYDE BENZYL ISOPENTYL ACETAL; EI-MS
Name: BENZALDEHYDE BENZYL ISOAMYL ACETAL
Formula: C19H24O2
Exact mass: 284.17763
Instrument type: EI-MS
m/z	relative intensity
27	26
28	16
29	36
39	4
41	71
42	11
43	220
50	1
51	38
52	10
55	25
63	1
65	62
71	158
77	119
78	2
79	50
89	17
90	21
91	999
92	128
105	104
106	20
107	26
108	30
167	11
177	226
178	6
193	14
196	18
197	127
198	18
