Mass spectrum: 2-TERT-BUTYLMERCAPTO-5-PICOLINE; EI-MS
Formula: C10H15NS
Exact mass: 181.09252
Instrument type: EI-MS
m/z	relative intensity
29	60
39	90
41	90
53	6
57	110
65	60
80	70
81	3
92	50
97	50
125	999
126	1
127	50
181	80
182	10
