Mass spectrum: ETHYL-N-BUTYLAMINE; EI-MS
Formula: C6H15N
Exact mass: 101.12045
Instrument type: EI-MS
m/z	relative intensity
15	15
27	70
28	68
29	91
30	359
39	21
41	43
42	35
43	17
44	101
56	28
57	26
58	999
59	41
86	27
100	22
101	106
