Mass spectrum: NONYL NONANOATE; EI-MS
Formula: C18H36O2
Exact mass: 284.27153
Instrument type: EI-MS
m/z	relative intensity
27	120
29	297
31	13
39	67
41	690
42	237
43	999
44	18
45	19
53	31
54	53
55	602
56	461
57	737
58	32
59	16
60	105
61	272
67	60
68	105
69	377
70	413
71	493
72	23
73	172
74	15
79	12
81	49
82	133
83	326
84	337
85	170
86	12
87	45
89	30
95	15
96	62
97	351
98	326
99	27
101	31
103	19
111	29
112	31
115	66
116	29
123	13
126	548
127	62
129	56
139	13
140	16
141	347
142	30
145	34
158	83
159	880
160	73
171	23
173	14
199	11
284	14
