Mass spectrum: PHENYLETHYL HEXANOATE; EI-MS
Formula: C14H20O2
Exact mass: 220.14633
Instrument type: EI-MS
m/z	relative intensity
27	38
29	29
39	22
41	52
42	17
43	168
51	15
55	20
65	21
71	74
77	49
78	23
79	25
91	55
99	78
103	27
104	999
105	211
106	13
