Mass spectrum: DIPHENYL ETHER; EI-MS
Name: PHENYL ETHER
Formula: C12H10O
Exact mass: 170.07316
Instrument type: EI-MS
m/z	relative intensity
50	50
51	241
52	14
55	12
63	30
64	13
65	41
66	12
70	34
71	45
74	13
75	14
76	18
77	341
78	25
84	11
85	35
94	49
115	77
116	14
139	19
141	324
142	203
143	24
169	179
170	999
171	135
172	11
