Mass spectrum: PARA-N-AMYLBENZOIC ACID TRIMETHYLSILYL ESTER; EI-MS
Name: TRIMETHYLSILYL 4-PENTYLBENZOATE
Formula: C15H24O2Si
Exact mass: 264.15456
Instrument type: EI-MS
m/z	relative intensity
43	77
45	77
73	129
77	9
90	109
91	193
118	83
175	48
176	38
193	58
205	483
206	6
207	38
249	999
250	167
251	4
264	38
