Mass spectrum: ISOQUINOLINE; EI-MS
Formula: C9H7N
Exact mass: 129.05785
Instrument type: EI-MS
m/z	relative intensity
27	11
28	12
37	13
38	21
39	42
49	12
50	122
51	174
52	40
61	16
62	29
63	66
64	24
74	89
75	119
76	102
77	42
78	23
87	11
98	11
101	65
102	267
103	82
127	10
128	174
129	999
130	110
