Mass spectrum: 4,8-DIMETHYLQUINOLINE; EI-MS
Formula: C11H11N
Exact mass: 157.08915
Instrument type: EI-MS
m/z	relative intensity
38	34
39	60
50	31
51	42
63	72
65	41
77	104
89	32
102	32
103	24
115	52
116	28
128	80
129	49
141	41
142	128
156	273
157	999
158	139
159	21
