Mass spectrum: S-PROPYL THIOACETATE; EI-MS
Formula: C5H10OS
Exact mass: 118.04524
Instrument type: EI-MS
m/z	relative intensity
15	36
27	67
29	12
39	57
41	85
42	68
43	999
44	21
45	54
46	24
47	58
58	15
59	16
61	11
74	36
75	25
76	34
77	32
118	118
