Mass spectrum: DODECANAL; EI-MS
Formula: C12H24O
Exact mass: 184.18272
Instrument type: EI-MS
m/z	relative intensity
39	295
41	999
42	263
43	789
44	349
45	104
53	75
54	126
55	667
56	376
57	777
58	43
66	73
67	358
68	338
69	309
70	243
71	273
72	63
80	36
81	284
82	444
83	207
84	103
85	141
95	195
96	228
97	134
98	65
109	83
110	134
111	75
123	41
124	42
138	56
140	72
