Mass spectrum: ISOAMYL ALCOHOL; EI-MS
Name: 3-METHYLBUTANOL
Formula: C5H12O
Exact mass: 88.08882
Instrument type: EI-MS
m/z	relative intensity
15	51
19	21
26	30
27	351
28	104
29	494
30	17
31	478
38	28
39	341
40	51
41	840
42	770
43	659
44	57
45	178
46	68
47	12
50	15
51	19
53	43
54	16
55	999
56	324
57	476
58	23
59	15
69	56
70	751
71	59
