Mass spectrum: TRIMETHYLOLPROPANE; EI-MS
Formula: C6H14O3
Exact mass: 134.09429
Instrument type: EI-MS
m/z	relative intensity
29	172
31	71
39	13
41	189
42	37
43	201
44	133
45	45
47	22
53	19
54	10
55	235
56	43
57	999
58	97
59	12
61	20
67	76
68	142
69	97
70	119
71	217
72	19
73	34
83	54
84	10
85	86
86	643
87	44
103	8
