Mass spectrum: 2-CYANOPHENAZINE; EI-MS
Formula: C13H7N3
Exact mass: 205.064
Instrument type: EI-MS
m/z	relative intensity
75	180
76	210
77	90
100	70
101	80
102	80
102.5	150
103	90
127	70
128	90
149	95
151	70
152	50
153	50
154	60
177	60
178	150
179	100
204	100
205	999
206	140
207	25
