Mass spectrum: PARA CHLOROTOLUENE; EI-MS
Formula: C7H7Cl
Exact mass: 126.02363
Instrument type: EI-MS
m/z	relative intensity
27	12
37	10
38	18
39	72
41	13
43	21
44	18
44.5	13
45	46
50	35
51	35
61	15
62	32
63	89
64	17
65	98
73	24
75	19
89	94
90	24
91	999
92	75
99	26
101	7
125	147
126	331
127	70
128	106
129	8
