Mass spectrum: 2-NAPHTHALENEACETIC ACID TRIMETHYLSILYL ESTER; EI-MS
Formula: C15H18O2Si
Exact mass: 258.10761
Instrument type: EI-MS
m/z	relative intensity
44	13
45	58
47	13
73	999
74	86
75	155
115	86
121	1
139	55
140	34
141	96
214	10
215	20
243	69
244	13
258	11
259	20
