Mass spectrum: DODECANE; EI-MS
Formula: C12H26
Exact mass: 170.20345
Instrument type: EI-MS
m/z	relative intensity
39	82
40	15
41	415
42	113
43	987
44	35
53	21
54	21
55	171
56	142
57	999
58	49
67	12
68	11
69	64
70	118
71	522
72	28
82	7
83	24
84	70
85	293
86	9
97	9
98	55
99	57
100	4
112	31
113	44
126	14
127	31
128	8
140	7
141	16
170	51
171	7
