Mass spectrum: PENTYL PHENYL KETONE; EI-MS
Name: HEXANOPHENONE
Formula: C12H16O
Exact mass: 176.12012
Instrument type: EI-MS
m/z	relative intensity
27	76
29	53
39	39
41	41
42	11
43	30
50	31
51	146
52	11
55	29
76	18
77	505
78	75
91	18
105	999
106	77
120	542
121	41
133	40
176	52
