Mass spectrum: METHYL 10-OXOUNDECANOATE; EI-MS
Formula: C12H22O3
Exact mass: 214.15689
Instrument type: EI-MS
m/z	relative intensity
41	329
43	999
44	33
55	40
56	20
58	373
59	19
69	16
74	165
83	178
87	209
97	29
98	98
107	36
111	49
124	16
125	507
126	41
139	45
144	3
156	120
157	436
158	44
171	2
172	22
183	209
184	31
199	3
214	169
215	31
