Mass spectrum: ACETIC ACID METHYL ESTER; EI-MS
Name: METHYL ACETATE
Formula: C3H6O2
Exact mass: 74.03678
Instrument type: EI-MS
m/z	relative intensity
13	14
14	56
15	314
28	17
29	89
30	14
31	51
32	21
41	13
42	99
43	999
44	28
45	14
59	57
74	125
75	10
