Mass spectrum: BETA-PINENE; EI-MS
Name: 6,6-DIMETHYL-2-METHYLENEBICYCLO(3.1.1)HEPTANE
Formula: C10H16
Exact mass: 136.1252
Instrument type: EI-MS
m/z	relative intensity
27	140
29	60
39	216
40	38
41	454
42	20
43	43
50	14
51	56
52	31
53	112
54	13
55	66
63	15
65	58
66	20
67	100
68	28
69	358
70	15
77	202
78	41
79	219
80	107
81	30
82	12
91	177
92	94
93	999
94	133
95	25
105	26
107	45
108	13
121	108
136	94
