Mass spectrum: 3-ETHYL-1,2,3,4-TETRAHYDRO-GAMMA-CARBOLINE; EI-MS
Formula: C13H16N2
Exact mass: 200.13135
Instrument type: EI-MS
m/z	relative intensity
42	20
56	33
77	21
102	2
115	63
128	26
130	16
142	4
143	999
144	155
145	14
156	4
157	16
185	10
199	102
200	265
