Mass spectrum: BENZALDEHYDE; EI-MS
Formula: C7H6O
Exact mass: 106.04186
Instrument type: EI-MS
m/z	relative intensity
39	31
50	22
51	225
63	13
76	29
77	551
78	141
105	93
106	999
107	103
