Mass spectrum: CROTONIC ACID METHYL ESTER; EI-MS
Formula: C5H8O2
Exact mass: 100.05243
Instrument type: EI-MS
m/z	relative intensity
29	16
39	105
40	22
41	395
42	23
59	39
68	30
69	999
70	45
85	229
86	10
100	239
101	15
