Mass spectrum: N-ETHYL-N-METHYLANILINE; EI-MS
Formula: C9H13N
Exact mass: 135.1048
Instrument type: EI-MS
m/z	relative intensity
17	175
18	631
32	254
51	14
77	306
106	163
120	999
135	344
