Mass spectrum: 2,3-DIMETHYL-6-NITROPYRROLO(3,2-G)QUINOLINE; EI-MS
Formula: C13H11N3O2
Exact mass: 241.08513
Instrument type: EI-MS
m/z	relative intensity
45	240
55	261
56	48
57	21
69	48
71	131
83	119
97	12
167	119
168	131
179	24
180	5
193	24
194	36
195	630
196	5
211	24
226	24
240	48
241	999
242	95
