Mass spectrum: PARA-ANISIDINE; EI-MS
Name: PARA-METHOXYANILINE
Formula: C7H9NO
Exact mass: 123.06841
Instrument type: EI-MS
m/z	relative intensity
27	29
28	64
38	14
39	53
41	29
50	11
51	26
52	90
53	137
54	25
61	22
63	25
64	14
65	63
79	15
80	285
81	22
92	16
95	24
108	999
109	69
122	24
123	715
124	54
