Mass spectrum: ISOPROPYL PALMITATE; EI-MS
Formula: C19H38O2
Exact mass: 298.28718
Instrument type: EI-MS
m/z	relative intensity
43	999
44	60
45	44
53	64
54	600
55	156
56	723
57	3
58	194
59	717
60	261
67	9
68	55
69	319
70	89
71	41
73	409
74	65
81	66
82	4
83	185
84	97
85	220
87	11
95	67
96	39
97	136
98	19
99	63
101	61
102	792
103	12
109	32
111	84
112	51
113	4
115	78
125	42
129	159
157	5
171	39
185	45
213	70
239	21
240	39
255	30
256	596
257	40
258	46
298	90
299	55
