Mass spectrum: PARA-TOLUIDINE; EI-MS
Name: PARA-AMINOTOLUENE
Formula: C7H9N
Exact mass: 107.0735
Instrument type: EI-MS
m/z	relative intensity
27	25
28	31
30	10
38	12
39	43
41	16
50	24
51	48
52	49
525	19
53	58
535	31
54	21
63	22
65	22
66	12
77	141
78	43
79	95
80	28
89	14
91	20
104	26
105	18
106	999
107	724
108	53
