Mass spectrum: TRIDECANEDIOIC ACID DIHEXYL ESTER; EI-MS
Formula: C25H48O4
Exact mass: 412.35526
Instrument type: EI-MS
m/z	relative intensity
42	20
43	176
56	119
57	128
61	54
68	25
69	80
70	70
71	83
73	36
82	50
83	132
84	194
85	122
87	26
96	27
97	96
98	169
99	22
101	47
110	28
111	163
112	65
113	8
114	8
115	43
116	21
117	10
124	49
125	120
126	31
127	11
128	6
129	330
130	25
135	9
138	10
139	30
140	43
141	13
142	15
143	70
144	43
145	24
151	11
152	342
153	92
154	15
155	12
157	44
169	3
170	21
171	999
172	105
173	11
180	3
185	32
199	114
200	27
208	3
212	5
213	118
214	14
226	16
227	58
228	31
241	34
254	23
255	571
256	109
257	12
269	91
270	17
273	35
282	12
283	115
284	37
301	4
310	14
311	313
312	69
313	8
329	10
