Mass spectrum: 1,5-DIBROMOPENTANE; EI-MS
Formula: C5H10Br2
Exact mass: 227.91493
Instrument type: EI-MS
m/z	relative intensity
42	77
43	85
53	25
55	10
67	28
68	37
69	999
70	57
80	12
82	12
93	12
95	13
107	52
109	50
148	79
149	68
150	81
151	64
228	2
230	5
232	2
