Mass spectrum: ETHYLENE GLYCOL MONOISOBUTYL ETHER; EI-MS
Name: 2-ISOBUTOXYETHANOL
Formula: C6H14O2
Exact mass: 118.09938
Instrument type: EI-MS
m/z	relative intensity
18	27
27	49
29	336
31	77
39	11
41	336
42	21
43	55
44	16
45	926
46	22
55	33
56	99
57	999
58	40
59	31
63	19
71	25
72	12
73	18
