Mass spectrum: HEXYL  SALICYLATE; EI-MS
Formula: C13H18O3
Exact mass: 222.12559
Instrument type: EI-MS
m/z	relative intensity
27	78
29	51
39	108
41	141
42	28
43	237
53	21
55	72
56	27
57	17
63	26
64	30
65	125
69	24
84	13
92	141
93	65
120	999
121	282
122	19
138	420
139	58
222	130
223	15
