Mass spectrum: ISOBUTYL PARA HYDROXY BENZOATE; EI-MS
Formula: C11H14O3
Exact mass: 194.09429
Instrument type: EI-MS
m/z	relative intensity
27	48
29	32
39	127
41	64
43	33
59	30
63	30
64	24
65	190
66	24
92	18
93	195
94	39
95	14
120	13
121	999
122	99
123	13
138	480
139	69
