Mass spectrum: DIBENZO(D,F)-1,1,2,2,3,3-HEXAMETHYL-1,2,3-TRISILACYCLOHEPTA-4,6-DIENE; EI-MS
Formula: C18H26Si3
Exact mass: 326.13423
Instrument type: EI-MS
m/z	relative intensity
43	29
45	36
59	28
73	325
74	27
75	14
101	66
115	13
116	999
117	168
118	90
131	10
165	37
193	11
195	109
196	23
253	19
311	10
326	27
327	10
