Mass spectrum: ALLYLHYDRAZONE ACETALDEHYDE; EI-MS
Name: ACETALDEHYDE ALLYLHYDRAZONE
Formula: C5H10N2
Exact mass: 98.0844
Instrument type: EI-MS
m/z	relative intensity
27	292
28	791
29	263
30	73
31	25
38	33
39	266
40	7
41	459
42	334
43	79
44	15
52	20
53	17
54	105
55	9
56	375
57	709
58	40
67	1
68	175
69	999
70	96
71	33
72	15
82	11
83	171
84	1
97	79
98	561
99	63
