Mass spectrum: DIPROPYL DISULFIDE; EI-MS
Formula: C6H14S2
Exact mass: 150.05369
Instrument type: EI-MS
m/z	relative intensity
15	10
26	11
27	201
29	14
39	112
41	316
42	25
43	999
44	18
45	70
46	41
47	54
58	13
59	13
64	20
66	70
73	40
74	41
75	15
79	31
108	284
109	13
110	21
150	357
151	26
152	30
