Mass spectrum: 4-HYDROXY-3-METHOXYBENZALDEHYDE; EI-MS
Name: VANILLIN
Formula: C8H8O3
Exact mass: 152.04734
Instrument type: EI-MS
m/z	relative intensity
52	12
53	23
55	12
65	27
67	14
77	19
80	12
81	115
93	11
95	11
108	37
109	119
123	102
124	15
137	46
151	772
152	999
153	101
154	11
