Mass spectrum: N-PIPEROYL-N,N-DIBUTYLAMINE; EI-MS
Name: N,N-DIBUTYL-5-(3,4-METHYLENEDIOXYPHENYL)-2,4-PENTADIENAMIDE
Formula: C20H27NO3
Exact mass: 329.19909
Instrument type: EI-MS
m/z	relative intensity
114	46
115	50
116	23
128	7
131	18
135	62
143	56
144	3
148	35
152	98
156	14
161	2
171	50
172	60
173	117
174	15
175	11
180	17
181	13
187	4
188	21
194	18
200	40
201	999
202	193
203	21
230	26
272	2
273	18
286	72
287	23
300	2
328	18
329	492
330	109
331	20
