Mass spectrum: 1,6-DIMETHYL-4-OXO-7,8-DIHYDRO-1H,4H,6H-PYRIDO(1,2-A)PYRIMIDINE-3-CARBOXAMIDE; EI-MS
Formula: C11H15N3O2
Exact mass: 221.11643
Instrument type: EI-MS
m/z	relative intensity
66	30
79	30
81	70
93	3
94	30
97	90
101	30
109	10
135	100
147	95
148	90
149	8
162	67
166	60
174	40
175	3
177	40
179	40
188	60
191	6
203	80
204	30
206	170
220	30
221	999
222	150
