Mass spectrum: FURFURYL ACETATE; EI-MS
Formula: C7H8O3
Exact mass: 140.04734
Instrument type: EI-MS
m/z	relative intensity
14	24
15	117
26	31
27	210
28	16
29	97
37	25
38	63
39	191
40	15
41	112
42	113
43	634
44	19
50	76
51	126
52	497
53	418
54	19
55	15
61	16
68	11
69	57
70	30
79	12
80	166
81	999
82	54
95	50
97	101
98	517
99	26
140	310
141	23
