Mass spectrum: 9-FLUORENONE; EI-MS
Formula: C13H8O
Exact mass: 180.05751
Instrument type: EI-MS
m/z	relative intensity
50	161
51	104
63	184
74	90
75	104
76	417
80	94
91	6
109	56
113	80
118	56
124	6
126	80
137	94
150	109
151	21
152	535
155	90
180	999
181	189
