Mass spectrum: (4AS,5S)-(+)-1,4ABETA-DIMETHYL-5BETA((P-BROMOBENZOYL)OXY)-4,4A,5,6,7,8-HEXAHYDRONAPHTHALEN-2(3H)-ONE; EI-MS
Formula: C19H21BrO3
Exact mass: 376.06741
Instrument type: EI-MS
m/z	relative intensity
27	12
39	18
41	36
50	24
51	11
53	19
55	27
65	13
67	15
75	32
76	70
77	40
79	34
91	43
93	27
104	54
105	44
107	11
118	111
119	38
120	10
121	11
132	71
133	38
134	20
147	13
148	17
155	97
156	11
157	100
158	35
161	24
176	224
177	30
183	999
184	81
185	992
186	79
202	11
376	58
377	17
378	56
379	15
