Mass spectrum: 1-CARBOMETHOXY-4-FORMYLAZULENE; EI-MS
Formula: C13H10O3
Exact mass: 214.06299
Instrument type: EI-MS
m/z	relative intensity
31	14
41	16
43	18
50	1
51	15
74	20
75	25
76	2
77	34
99	9
101	20
114	1
115	21
126	75
127	131
141	2
143	24
154	94
155	963
156	12
170	40
171	150
183	944
184	13
186	563
187	74
214	999
215	143
