Mass spectrum: 7-METHYLTHIOHEPTANENITRILE; EI-MS
Formula: C8H15NS
Exact mass: 157.09252
Instrument type: EI-MS
m/z	relative intensity
41	110
55	165
61	999
62	8
63	55
69	325
81	110
82	44
83	990
96	185
110	140
142	3
157	135
158	15
159	10
