Mass spectrum: 2-O-METHYL-1,3,4,5,6-PENTA-O-ACETYL GLUCITOL; EI-MS
Formula: C17H26O11
Exact mass: 406.14751
Instrument type: EI-MS
m/z	relative intensity
41	7
42	14
43	867
44	22
45	16
55	9
57	6
58	60
59	12
60	12
61	6
68	5
69	18
71	7
73	15
74	17
75	8
81	7
85	28
86	10
87	58
88	5
97	77
98	7
99	17
100	11
101	5
103	20
110	6
111	18
112	7
113	11
115	48
116	16
117	999
118	55
119	7
124	8
125	11
127	17
128	11
129	53
130	7
139	153
140	15
141	6
142	8
145	18
147	6
153	11
157	26
158	5
159	39
170	7
171	21
187	10
201	11
231	9
259	24
333	40
334	6
