Mass spectrum: 2,3,5-TRIMETHYL-6-NITROINDOLE; EI-MS
Formula: C11H12N2O2
Exact mass: 204.08988
Instrument type: EI-MS
m/z	relative intensity
39	164
41	355
42	173
43	25
44	35
45	100
51	133
52	6
53	84
54	31
55	187
56	4
57	157
60	68
63	98
64	3
65	108
66	21
67	65
68	9
70	56
71	68
73	68
75	3
76	23
77	160
78	46
79	4
80	21
81	33
82	41
83	7
84	25
85	29
87	21
89	8
91	115
93	46
95	63
97	4
101	21
102	32
103	42
107	2
109	35
114	25
115	355
116	9
117	42
119	23
121	27
123	3
126	63
127	42
128	81
130	11
131	73
132	133
133	21
136	3
137	63
140	21
141	42
142	13
143	315
144	135
145	36
146	3
149	23
154	38
155	36
156	40
157	480
158	610
159	360
160	3
171	27
172	90
173	32
174	15
175	20
185	25
187	920
188	7
203	31
204	999
205	95
