Mass spectrum: 3,6-DIMETHYL-2,5-PIPERAZINEDIONE; EI-MS
Name: CYCLOALANYLALANINE
Formula: C6H10N2O2
Exact mass: 142.07423
Instrument type: EI-MS
m/z	relative intensity
14	12
15	136
26	32
27	10
28	306
29	20
30	10
40	3
41	44
42	163
43	109
44	999
45	28
55	30
56	100
70	2
71	89
99	319
100	28
114	2
142	101
143	12
