Mass spectrum: (4-PHENYL-3-BUTENYL)TRIMETHYLSILANE; EI-MS
Name: 1-PHENYL-4-TRIMETHYLSILYL-1-BUTENE
Formula: C13H20Si
Exact mass: 204.13343
Instrument type: EI-MS
m/z	relative intensity
43	30
44	72
45	59
51	13
58	11
59	103
72	15
73	999
74	89
75	45
77	13
91	27
104	30
105	12
115	46
116	12
117	32
121	12
128	25
129	47
130	237
131	30
135	40
145	18
161	57
189	24
204	135
205	28
