Mass spectrum: 1-OXO-4,4A,5,6-TETRAHYDRO-1H-PYRIMIDO(1,2-A)QUINOLINE-2-CARBOXYLIC ACID ETHYL ESTER; EI-MS
Formula: C15H16N2O3
Exact mass: 272.11609
Instrument type: EI-MS
m/z	relative intensity
77	70
103	54
104	47
130	58
131	999
132	210
142	52
169	7
170	22
171	49
198	48
199	9
200	26
225	44
226	110
227	6
243	11
272	600
273	100
