Mass spectrum: TRI-PHENYL PHOSPHITE; EI-MS
Formula: C18H15O3P
Exact mass: 310.07588
Instrument type: EI-MS
m/z	relative intensity
27	45
37	22
38	60
39	277
40	74
47	91
50	65
51	331
55	46
62	24
63	59
64	28
65	232
66	191
76	25
77	862
78	70
93	35
94	565
95	44
140	57
141	26
151	47
152	123
153	233
154	56
170	77
199	73
217	999
218	154
234	32
309	80
310	367
311	70
