Mass spectrum: 3,4-DICHLORO-1,1,1,4,4-PENTAFLUORO-2-BUTENE; EI-MS
Formula: C4HCl2F5
Exact mass: 213.93755
Instrument type: EI-MS
m/z	relative intensity
31	4
36	51
38	16
51	0
69	54
75	23
85	65
87	2
109	42
111	10
113	59
125	0
129	365
131	119
145	263
147	16
149	28
159	5
160	4
161	0
163	17
165	11
167	3
179	999
181	325
194	20
195	22
196	1
197	17
214	204
216	136
218	20
