Mass spectrum: (29H,31H-PHTHALOCYANINATO(2-)-N(29),N(30),N(31),N(32))COBALT; EI-MS
Name: PHTHALOCYANINECOBALT(2)
Formula: C32H16CoN8
Exact mass: 571.08299
Instrument type: EI-MS
m/z	relative intensity
128	10
187	140
188	30
285.5	80
571	999
572	400
573	90
