Mass spectrum: CHLOROACETIC ACID METHYL ESTER; EI-MS
Name: METHYL CHLOROACETATE
Formula: C3H5ClO2
Exact mass: 107.99781
Instrument type: EI-MS
m/z	relative intensity
13	19
14	65
15	433
27	14
28	61
29	204
30	13
31	33
41	18
42	124
43	13
45	29
47	18
48	38
49	484
50	17
51	156
59	999
60	24
64	192
66	60
76	26
77	312
78	14
79	98
108	104
110	33
