Mass spectrum: PARA-CYANOBENZOIC ACID ISOBUTYL ESTER; EI-MS
Name: ISOBUTYL PARA-CYANOBENZOATE
Formula: C12H13NO2
Exact mass: 203.09463
Instrument type: EI-MS
m/z	relative intensity
27	44
28	11
29	48
31	11
39	43
41	132
42	25
43	63
50	32
51	53
52	11
55	28
56	810
57	63
73	22
74	12
75	80
76	54
101	10
102	346
103	59
104	13
130	999
131	96
135	11
148	102
149	15
