Mass spectrum: 3-HEXANOL; EI-MS
Formula: C6H14O
Exact mass: 102.10447
Instrument type: EI-MS
m/z	relative intensity
15	20
26	18
27	216
28	31
29	196
30	12
31	397
39	103
40	11
41	239
42	42
43	321
44	61
45	57
53	15
55	771
56	52
57	93
58	79
59	999
60	35
69	14
72	44
73	449
74	16
