Mass spectrum: N-HEXADECYL-5-METHYL-2-PYRROLIDONE; EI-MS
Formula: C21H41NO
Exact mass: 323.31881
Instrument type: EI-MS
m/z	relative intensity
26	15
27	48
29	92
30	13
31	8
32	9
39	24
40	1
41	209
42	63
43	255
44	8
46	10
53	14
54	20
55	27
56	79
57	153
58	19
59	1
67	17
68	12
69	70
70	5
71	11
81	13
82	54
83	10
84	163
85	34
86	17
94	1
95	10
96	16
97	27
98	17
99	39
100	79
101	7
110	1
111	20
112	999
113	940
114	8
115	6
126	190
127	67
128	1
138	22
139	5
140	228
141	7
142	9
154	100
155	28
156	1
166	8
167	5
168	67
169	3
170	7
182	43
183	10
196	6
197	22
198	3
208	5
210	5
211	14
212	5
224	47
225	2
238	49
239	18
252	38
253	2
254	7
266	30
267	13
268	1
280	45
281	20
294	33
295	4
296	10
306	16
307	7
308	1
309	182
310	7
322	25
323	28
324	74
325	15
