Mass spectrum: N-METHYLANILINE; EI-MS
Formula: C7H9N
Exact mass: 107.0735
Instrument type: EI-MS
m/z	relative intensity
50	65
51	162
52	67
53	64
54	12
62	15
63	41
64	35
65	99
66	23
74	27
75	17
76	25
77	336
78	94
79	162
80	16
91	20
92	22
93	10
103	13
104	103
105	93
106	999
107	811
108	65
