Mass spectrum: 1-OXO-1H-PYRIMIDO(1,2-A)QUINOLINE-2-CARBOXYLIC ACID PROPYL ESTER; EI-MS
Formula: C16H14N2O3
Exact mass: 282.10044
Instrument type: EI-MS
m/z	relative intensity
64	120
69	400
77	82
101	16
119	120
128	999
129	248
140	12
155	89
168	530
169	150
194	5
195	230
196	570
197	80
212	28
213	45
219	58
223	580
224	10
240	170
241	36
254	42
268	6
282	750
283	160
