Mass spectrum: 5-ISOPENTYLPYRIDINE-2-CARBOXYLIC ACID; EI-MS
Formula: C11H15NO2
Exact mass: 193.11028
Instrument type: EI-MS
m/z	relative intensity
41	229
43	134
45	84
55	2
57	208
65	57
66	16
77	2
78	14
79	24
91	174
92	10
93	114
104	20
105	50
106	3
119	207
120	15
132	16
133	1
136	74
137	16
149	999
150	12
193	14
