Mass spectrum: ACETOIN; EI-MS
Formula: C4H8O2
Exact mass: 88.05243
Instrument type: EI-MS
m/z	relative intensity
14	34
15	144
19	66
26	28
27	134
28	14
29	120
30	11
31	13
39	10
41	14
42	74
43	715
44	29
45	999
46	21
73	15
88	72
