Mass spectrum: P-CHLOROPHENOL; EI-MS
Formula: C6H5ClO
Exact mass: 128.00289
Instrument type: EI-MS
m/z	relative intensity
18	22
31	22
32	23
37	60
38	77
39	155
46	44
49	25
50	53
51	26
53	48
55	20
61	48
62	66
63	124
64	174
65	331
66	35
73	76
74	31
75	47
92	28
93	42
99	61
100	103
101	30
102	42
128	999
129	73
130	342
131	23
