Mass spectrum: 3,4-DIMETHOXYBENZYL ACETATE; EI-MS
Formula: C11H14O4
Exact mass: 210.08921
Instrument type: EI-MS
m/z	relative intensity
15	30
39	50
43	226
51	54
53	26
63	28
65	73
77	87
79	67
90	44
93	54
106	103
107	169
120	42
121	38
136	183
137	171
151	999
152	126
165	43
168	385
179	14
180	10
192	34
210	688
211	86
