Mass spectrum: ETHYL 4-METHOXYBENZOATE; EI-MS
Name: ETHYL ANISATE
Formula: C10H12O3
Exact mass: 180.07864
Instrument type: EI-MS
m/z	relative intensity
27	31
29	26
38	16
39	12
50	24
51	17
53	10
62	11
63	66
64	82
65	18
74	11
75	12
76	20
77	145
78	13
92	132
107	67
108	12
135	999
136	121
152	166
153	14
165	16
180	268
181	27
