Mass spectrum: 2,4-DIMETHYLCYCLOPENTANONE; EI-MS
Formula: C7H12O
Exact mass: 112.08882
Instrument type: EI-MS
m/z	relative intensity
28	19
29	19
41	178
42	64
43	81
55	284
56	138
57	1
68	33
69	999
70	152
71	2
79	18
83	98
84	39
94	4
97	218
98	16
111	20
112	48
113	37
