Mass spectrum: TRI-BUTHYLTIN FLUORIDE; EI-MS
Formula: C12H27FSn
Exact mass: 310.11188
Instrument type: EI-MS
m/z	relative intensity
51	12
53	23
55	83
56	35
57	602
58	30
69	21
116	26
117	111
118	90
119	180
120	108
121	210
123	34
125	38
131	28
132	12
133	32
134	19
135	181
136	88
137	255
138	97
139	333
141	51
143	63
145	23
146	11
147	33
149	37
151	23
152	12
153	40
154	20
155	49
157	19
159	11
163	19
164	18
165	35
166	24
167	46
168	19
169	27
171	25
172	20
173	293
174	179
175	494
176	213
177	644
178	41
179	106
181	110
191	21
192	24
193	97
194	67
195	146
196	68
197	140
198	10
199	26
201	24
209	22
210	14
211	40
212	18
213	47
215	17
231	22
232	16
233	29
234	14
235	16
245	31
247	23
248	27
249	453
250	318
251	773
252	383
253	999
254	96
255	142
256	23
257	160
258	15
265	40
266	27
267	76
268	42
269	103
270	18
271	38
273	17
289	11
291	13
