Mass spectrum: 1-BENZYL-2,2,5,5-TETRAMETHYL-2,5-DISILAPYRROLIDINE; EI-MS
Formula: C13H23NSi2
Exact mass: 249.1369
Instrument type: EI-MS
m/z	relative intensity
43	38
45	35
59	134
73	102
85	35
91	130
100	56
103	46
117	59
121	28
130	66
135	27
145	46
171	24
172	109
206	22
234	999
235	228
236	95
248	28
249	145
250	41
