Mass spectrum: BUTYL DECANOATE; EI-MS
Name: BUTYL CAPRATE
Formula: C14H28O2
Exact mass: 228.20893
Instrument type: EI-MS
m/z	relative intensity
29	35
41	70
43	137
55	56
56	999
57	287
58	14
60	207
61	123
69	56
70	13
71	103
73	172
74	20
81	15
83	27
84	30
85	42
87	44
89	16
95	17
97	20
99	23
101	49
103	13
111	10
115	22
116	67
117	20
129	102
143	15
155	180
156	20
172	32
173	292
174	34
185	11
228	8
