Mass spectrum: ETHYL 3-PHENYLBENZOATE; EI-MS
Formula: C15H14O2
Exact mass: 226.09938
Instrument type: EI-MS
m/z	relative intensity
26	10
27	60
29	81
39	2
40	13
43	14
44	27
45	5
50	58
51	130
52	12
63	4
65	10
74	30
75	70
76	18
77	281
78	30
91	94
101	1
102	18
104	11
105	605
106	7
111	57
113	20
115	13
122	18
123	18
126	31
127	45
139	17
140	21
141	56
149	28
150	22
151	135
152	462
153	404
154	9
156	70
158	24
181	925
182	18
183	19
184	57
186	19
198	25
199	37
211	38
226	999
227	17
228	19
