Mass spectrum: 6-METHOXY-2,2,4-TRIMETHYL-1,2,3,4-TETRAHYDRO-GAMMA-CARBOLINE; EI-MS
Formula: C15H20N2O
Exact mass: 244.15756
Instrument type: EI-MS
m/z	relative intensity
42	10
77	12
115	32
144	6
172	132
173	39
186	60
187	999
188	132
213	26
229	408
230	3
243	50
244	151
