Mass spectrum: 3-TERT-BUTYLMERCAPTOPYRIDINE; EI-MS
Formula: C9H13NS
Exact mass: 167.07687
Instrument type: EI-MS
m/z	relative intensity
29	270
39	390
41	350
51	6
57	730
67	120
83	80
84	1
110	50
111	999
112	120
113	0
167	150
168	30
