Mass spectrum: 4-PROPYLBENZOIC ACID METHYL ESTER; EI-MS
Formula: C11H14O2
Exact mass: 178.09938
Instrument type: EI-MS
m/z	relative intensity
44	21
50	28
51	64
59	19
61	14
62	28
63	14
65	6
66	14
72	14
74	35
75	2
76	21
77	214
78	92
79	5
85	14
89	42
90	21
91	44
92	21
93	21
98	14
101	2
102	42
103	178
104	100
105	6
110	21
115	50
117	100
118	3
119	635
120	71
121	35
123	4
131	278
132	28
135	42
145	3
146	21
147	335
148	42
163	999
164	100
165	35
177	21
178	44
179	42
183	14
