Mass spectrum: TRANS-3-MORPHOLINOMETHYLFLAVANONE; EI-MS
Name: 3-MORPHOLINOMETHYL-TRANS-2-PHENYLCHROMAN-4-ONE
Formula: C20H21NO3
Exact mass: 323.15214
Instrument type: EI-MS
m/z	relative intensity
32	38
42	37
56	92
57	5
91	23
98	20
99	53
100	999
101	92
115	141
116	47
117	5
121	101
149	40
235	105
236	14
323	22
