Mass spectrum: 2-OCTANOL; EI-MS
Formula: C8H18O
Exact mass: 130.13577
Instrument type: EI-MS
m/z	relative intensity
27	87
28	15
29	95
31	17
39	50
41	144
42	54
43	152
44	80
45	999
46	22
53	10
55	194
56	65
57	62
69	56
70	57
71	15
83	27
84	54
97	68
112	31
115	27
