Mass spectrum: DIMETHYL ISOPHTHALATE; EI-MS
Name: 1,3-BENZENEDICARBOXYLIC ACID DIMETHYL ESTER
Formula: C10H10O4
Exact mass: 194.05791
Instrument type: EI-MS
m/z	relative intensity
15	38
28	33
30	12
38	10
39	11
50	106
51	20
52	33
59	15
63	10
64	10
66	38
74	33
75	80
76	134
77	79
92	25
103	94
104	42
105	10
107	23
119	48
120	75
135	316
136	26
149	19
163	999
164	97
193	18
194	167
195	18
