Mass spectrum: N-ETHYL-ORTHO-TOLUIDINE; EI-MS
Formula: C9H13N
Exact mass: 135.1048
Instrument type: EI-MS
m/z	relative intensity
27	31
28	35
29	14
30	16
39	60
41	26
42	19
44	51
50	14
51	45
52	24
53	14
58.5	24
59.5	19
60	13
63	26
65	109
77	76
78	22
79	33
89	19
91	243
92	44
93	76
103	14
104	19
105	15
106	63
107	14
117	31
118	119
119	42
120	999
121	95
133	13
134	46
135	375
136	44
