Mass spectrum: N,N-DIETHYLFORMAMIDE; EI-MS
Formula: C5H11NO
Exact mass: 101.08406
Instrument type: EI-MS
m/z	relative intensity
14	10
15	94
17	15
18	126
26	54
27	297
28	304
29	358
30	852
31	14
39	13
40	28
41	65
42	175
43	34
44	453
45	23
46	23
52	11
54	16
56	71
57	14
58	999
59	38
70	18
72	182
73	47
79	11
86	388
87	18
100	19
101	915
102	199
103	12
