Mass spectrum: 3-METHYLBUTOXYMETHYLBENZENE; EI-MS
Name: BENZYL ISOAMYL ETHER
Formula: C12H18O
Exact mass: 178.13577
Instrument type: EI-MS
m/z	relative intensity
27	58
29	55
39	94
41	123
42	16
43	158
50	10
51	38
52	10
55	21
57	25
63	20
65	112
69	51
70	17
71	22
77	46
78	17
79	43
89	21
90	14
91	999
92	656
93	37
105	20
107	30
108	50
