Mass spectrum: 2-PROPENYL 3-PHENYL-2-PROPENOATE; EI-MS
Name: CINNAMIC ACID ALLYL ESTER
Formula: C12H12O2
Exact mass: 188.08373
Instrument type: EI-MS
m/z	relative intensity
27	39
28	29
29	10
38	14
39	103
40	11
41	124
50	52
51	159
52	29
62	10
63	31
69	28
74	21
75	29
76	39
77	330
78	34
91	49
97	22
101	13
102	96
103	497
104	353
105	36
115	11
116	14
128	48
129	70
130	16
131	999
132	18
142	40
143	167
144	26
147	60
148	17
173	34
188	226
189	34
