Mass spectrum: ETHOXYCARBONYLMETHYL METHYL PHTHALATE; EI-MS
Name: METHYL PHTHALYL ETHYL GLYCOLATE
Formula: C13H14O6
Exact mass: 266.07904
Instrument type: EI-MS
m/z	relative intensity
45	30
50	86
51	25
58	29
66	29
74	20
75	27
76	14
77	166
92	55
104	113
105	4
132	20
133	30
135	54
149	11
163	999
164	106
177	24
221	7
235	71
266	70
