Mass spectrum: ISONORBORNYL ACETATE; EI-MS
Name: EXO-BICYCLO(2.2.1)HEPT-2-YL ACETATE
Formula: C9H14O2
Exact mass: 154.09938
Instrument type: EI-MS
m/z	relative intensity
41	11
43	746
44	19
55	29
57	13
58	91
59	96
66	945
67	353
68	75
69	10
70	20
71	176
79	220
80	19
81	28
82	12
83	81
84	46
87	21
92	11
93	85
94	999
95	240
96	77
97	51
108	31
110	85
111	424
112	132
113	16
126	78
139	21
154	29
