Mass spectrum: 4-PYRONE; EI-MS
Formula: C5H4O2
Exact mass: 96.02113
Instrument type: EI-MS
m/z	relative intensity
40	80
41	60
42	370
44	60
50	50
53	70
68	250
69	500
70	400
71	50
96	999
97	50
