Mass spectrum: 2-METHOXYETHYL ACETATE; EI-MS
Formula: C5H10O3
Exact mass: 118.06299
Instrument type: EI-MS
m/z	relative intensity
15	76
18	26
27	26
28	37
29	114
30	10
31	31
42	38
43	999
44	30
45	511
46	10
58	510
59	31
61	14
73	36
75	10
88	15
