Mass spectrum: PROPIONYL CHLORIDE; EI-MS
Formula: C3H5ClO
Exact mass: 92.00289
Instrument type: EI-MS
m/z	relative intensity
25	38
26	190
27	603
28	151
29	999
30	25
35	20
36	10
37	14
38	11
39	13
41	10
42	38
44	21
49	17
53	11
55	20
56	18
57	802
58	28
63	80
65	27
