Mass spectrum: 3-BROMOPROPYLTRIMETHYLSILANE; EI-MS
Formula: C6H15BrSi
Exact mass: 194.01264
Instrument type: EI-MS
m/z	relative intensity
41	56
42	699
43	162
44	60
45	132
55	35
57	29
58	30
59	49
72	44
73	972
74	73
75	47
107	39
109	63
111	31
123	33
125	31
137	999
138	103
139	991
140	83
141	41
152	81
154	83
179	32
181	37
