Mass spectrum: PARA-PHENYLENEDIAMINE; EI-MS
Name: PARA-DIAMINOBENZENE
Formula: C6H8N2
Exact mass: 108.06875
Instrument type: EI-MS
m/z	relative intensity
27	23
28	55
38	10
39	28
40	19
41	31
42	16
50	11
51	22
52	75
53	120
535	14
54	121
55	18
63	20
64	23
65	22
66	13
67	25
78	10
79	18
80	339
81	153
82	15
90	12
91	28
105	11
106	10
107	254
108	999
109	68
