Mass spectrum: DIBUTYL FUMARATE; EI-MS
Name: FUMARIC ACID DIBUTYL ESTER
Formula: C12H20O4
Exact mass: 228.13616
Instrument type: EI-MS
m/z	relative intensity
15	14
26	77
27	264
28	78
29	419
30	13
31	24
39	89
40	16
41	448
42	27
43	55
44	11
45	25
53	65
54	172
55	171
56	999
57	595
58	27
71	59
72	22
73	13
81	85
82	139
97	23
98	21
99	500
100	174
101	13
109	25
117	974
118	43
119	14
126	19
127	100
128	16
154	52
155	969
156	98
157	17
171	13
172	11
173	523
174	49
