Mass spectrum: DIETHYL MALEATE; EI-MS
Formula: C8H12O4
Exact mass: 172.07356
Instrument type: EI-MS
m/z	relative intensity
43	113
44	27
45	94
53	259
54	160
71	134
72	37
82	13
99	999
100	136
125	23
126	26
127	688
128	131
143	62
145	3
173	156
