Mass spectrum: 3-PHENYL-3-BUTENYL ACETATE; EI-MS
Formula: C12H14O2
Exact mass: 190.09938
Instrument type: EI-MS
m/z	relative intensity
15	32
27	21
39	58
41	19
42	14
43	982
44	22
50	24
51	92
52	19
53	13
63	38
65	37
73	13
74	11
75	16
76	18
77	102
78	51
79	12
89	18
91	163
92	12
102	64
103	67
115	334
116	62
117	38
118	21
119	12
127	19
128	69
129	534
130	999
131	122
190	18
