Mass spectrum: 1-(4-ACETOXY-3-METHOXYPHENYL)DEC-4-EN-3-ONE; EI-MS
Name: SHOGAOL ACETATE
Formula: C19H26O4
Exact mass: 318.18311
Instrument type: EI-MS
m/z	relative intensity
39	59
40	8
41	152
42	4
43	296
44	15
45	8
50	1
51	41
52	28
53	44
54	1
55	330
56	26
57	44
59	1
63	26
65	23
66	15
67	2
68	18
69	59
70	10
71	1
73	8
77	59
78	28
79	5
80	13
81	52
82	10
83	3
84	8
85	10
89	8
90	1
91	103
92	13
93	13
94	4
95	28
96	13
97	31
99	1
103	13
104	8
105	26
106	2
107	39
108	13
109	15
110	1
111	13
113	8
115	10
116	1
117	15
118	8
119	70
120	2
121	10
122	44
123	18
124	4
125	64
126	8
130	10
131	1
132	8
133	8
134	10
135	3
136	15
137	999
138	108
139	2
144	10
145	26
146	10
147	2
148	8
149	39
150	80
151	18
152	59
153	10
161	13
163	1
164	8
166	15
173	18
177	1
178	10
179	46
187	8
189	1
190	8
192	8
194	8
199	1
204	10
205	374
206	62
207	1
215	8
243	8
248	8
275	1
276	515
277	80
278	21
318	4
319	3
