Mass spectrum: N-ETHYL-2,4-DINITROBENZENAMINE; EI-MS
Formula: C8H9N3O4
Exact mass: 211.05931
Instrument type: EI-MS
m/z	relative intensity
42	16
43	103
46	29
50	76
51	126
52	152
53	38
61	42
63	181
64	133
65	152
66	113
67	24
74	55
75	111
76	168
77	198
78	999
79	126
80	79
88	35
89	59
90	122
91	246
92	170
93	111
94	24
102	33
103	83
104	265
105	68
106	87
107	22
108	55
109	35
111	33
116	40
117	157
118	257
119	161
120	142
121	92
122	148
123	33
126	29
130	33
131	55
132	85
134	68
137	37
138	105
146	33
147	68
148	31
149	98
150	161
151	100
152	37
157	35
163	35
164	92
166	161
167	46
176	83
177	42
178	35
179	29
180	33
181	44
194	63
195	61
196	671
197	37
198	35
211	341
212	31
