Mass spectrum: DIMETHOATE; EI-MS
Formula: C5H12NO3PS2
Exact mass: 228.99962
Instrument type: EI-MS
m/z	relative intensity
229	380
143	290
126	220
125	800
105	150
104	170
93	810
88	220
87	999
79	340
63	340
58	470
56	210
47	430
