Mass spectrum: TRICOSANE; EI-MS
Formula: C23H48
Exact mass: 324.3756
Instrument type: EI-MS
m/z	relative intensity
41	387
42	198
43	848
45	12
56	196
57	999
58	86
68	31
70	86
71	707
72	36
82	22
83	12
84	68
85	470
86	25
99	118
112	16
113	93
127	51
131	18
135	16
140	27
141	42
155	32
168	21
183	33
197	18
207	50
211	17
224	16
225	12
253	14
324	29
