Mass spectrum: METHYL 2-ACETYLAMINO-3-PHENYLPROPIONATE; EI-MS
Formula: C12H15NO3
Exact mass: 221.10519
Instrument type: EI-MS
m/z	relative intensity
28	153
32	20
33	33
39	20
43	360
65	63
77	33
88	730
89	37
91	270
92	48
102	16
103	50
104	10
117	18
118	26
119	27
120	340
121	34
130	20
131	228
132	28
161	103
162	999
163	110
164	10
221	18
