Mass spectrum: ALPHA-GURJUNENE; EI-MS
Formula: C15H24
Exact mass: 204.1878
Instrument type: EI-MS
m/z	relative intensity
26	12
27	166
29	200
31	1
37	5
38	5
39	231
40	0
41	717
42	50
43	205
44	1
50	11
51	70
52	32
53	21
54	25
55	472
56	32
57	6
58	11
59	10
62	5
63	0
65	148
66	40
67	262
68	2
69	235
70	20
71	20
72	1
74	10
75	21
76	10
77	4
78	100
79	350
80	70
81	39
82	41
83	53
84	8
85	1
88	8
89	20
90	11
91	68
92	100
93	402
94	83
95	23
96	31
97	12
101	8
64	2
102	15
103	68
104	40
105	88
106	155
107	402
108	92
109	18
110	25
111	5
115	96
116	5
117	135
118	36
119	682
120	14
121	201
122	103
123	36
124	1
126	5
127	35
128	61
129	6
130	31
131	120
132	40
133	47
134	92
135	70
136	18
141	1
142	10
143	15
144	12
145	8
146	36
147	367
148	146
149	13
150	20
151	5
157	5
158	1
159	28
160	35
161	946
162	16
163	22
173	8
174	10
175	11
176	30
177	10
189	787
190	12
191	10
202	8
203	25
204	999
205	175
206	15
