Mass spectrum: 29H,31H-PHTHALOCYANINE; EI-MS
Name: PHTHALOCYANINE
Formula: C32H18N8
Exact mass: 514.16544
Instrument type: EI-MS
m/z	relative intensity
128	70
129	300
130	500
131	70
257	50
257.5	20
258	30
514	999
515	400
516	90
