Mass spectrum: 2,2-DIETHOXYPROPANE; EI-MS
Name: ACETONE DIETHYLACETAL
Formula: C7H16O2
Exact mass: 132.11503
Instrument type: EI-MS
m/z	relative intensity
15	31
27	57
28	80
29	98
31	114
39	24
41	59
42	25
43	243
44	19
45	38
58	57
59	999
60	37
61	215
77	13
87	559
88	32
89	44
112	13
117	51
