Mass spectrum: PROPANAL BENZYL ETHYL ACETAL; EI-MS
Formula: C12H18O2
Exact mass: 194.13068
Instrument type: EI-MS
m/z	relative intensity
27	32
29	73
31	30
39	3
41	22
51	23
57	13
59	16
63	15
65	89
77	26
79	1
87	91
89	19
90	24
91	999
92	97
148	25
165	64
