Mass spectrum: CYCLIZINE; EI-MS
Formula: C18H22N2
Exact mass: 266.1783
Instrument type: EI-MS
m/z	relative intensity
54	29
55	59
56	664
57	9
58	179
59	9
70	194
71	6
72	109
77	39
82	34
83	3
84	29
85	69
89	39
90	2
91	129
95	14
96	14
97	8
98	39
99	999
100	109
103	2
104	49
151	19
152	194
153	5
164	29
165	379
166	139
167	60
168	254
169	29
178	9
179	2
180	29
181	4
182	14
189	11
190	14
193	39
194	434
195	36
196	69
205	19
206	119
207	36
208	279
209	59
210	19
222	4
223	14
251	19
265	19
266	43
267	89
268	14
