Mass spectrum: 2,6-DINITROTOLUENE; EI-MS
Formula: C7H6N2O4
Exact mass: 182.03276
Instrument type: EI-MS
m/z	relative intensity
43	116
46	22
50	222
52	13
53	51
61	43
62	131
63	48
64	210
65	57
66	39
74	7
75	148
76	93
77	239
78	21
79	94
80	26
86	26
87	3
89	417
90	304
91	182
92	5
93	25
104	85
105	32
106	5
107	56
108	69
117	22
118	4
119	45
121	187
122	20
134	6
135	134
148	170
149	26
152	3
165	999
166	97
182	25
