Mass spectrum: 2-HEXANOYLFURAN; EI-MS
Formula: C10H14O2
Exact mass: 166.09938
Instrument type: EI-MS
m/z	relative intensity
27	20
29	30
39	89
40	10
41	61
42	41
43	121
53	20
54	40
55	121
56	10
61	31
67	30
68	99
69	10
70	30
80	10
81	81
82	22
94	10
95	727
96	80
97	29
109	10
110	999
111	168
112	10
123	280
124	30
137	21
138	20
166	10
