Mass spectrum: EUGENYL ACETATE; EI-MS
Name: 2-METHOXY-4-(2-PROPENYL)PHENYL ACETATE
Formula: C12H14O3
Exact mass: 206.09429
Instrument type: EI-MS
m/z	relative intensity
27	11
29	10
41	13
43	113
55	86
77	70
78	10
79	31
91	55
92	11
93	22
103	105
104	91
105	38
106	30
107	38
121	90
131	129
132	40
133	81
134	10
135	55
136	10
137	28
147	11
149	223
150	27
163	37
164	999
165	128
206	97
