Mass spectrum: FURFURYL ISOPROPYL SULFIDE; EI-MS
Formula: C8H12OS
Exact mass: 156.06089
Instrument type: EI-MS
m/z	relative intensity
26	11
27	111
29	13
38	12
39	76
41	83
43	55
45	75
47	18
50	16
51	38
52	24
53	143
58	17
59	39
81	999
82	64
85	22
113	16
156	189
157	18
