Mass spectrum: PROPYL FORMATE; EI-MS
Name: FORMIC ACID PROPYL ESTER
Formula: C4H8O2
Exact mass: 88.05243
Instrument type: EI-MS
m/z	relative intensity
15	16
26	25
27	178
28	62
29	137
30	20
31	972
39	79
40	29
41	232
42	999
43	142
45	28
47	101
57	54
59	52
73	13
