Mass spectrum: METHYL-CYCLOPENTENOLONE; EI-MS
Name: 3-METHYLCYCLOPENTANE-1,2-DIONE
Formula: C6H8O2
Exact mass: 112.05243
Instrument type: EI-MS
m/z	relative intensity
15	52
25	10
26	95
27	383
28	87
29	189
30	12
31	30
37	34
38	63
39	409
40	54
41	539
42	215
43	394
44	56
45	13
49	19
50	76
51	75
52	36
53	121
54	56
55	559
56	334
57	52
63	12
65	40
66	84
67	24
68	12
69	563
70	56
71	30
81	12
82	19
83	314
84	281
85	14
95	12
97	74
111	42
112	999
113	63
