Mass spectrum: M-METHYLBENZYL ACETATE; EI-MS
Name: 1-ACETOXYMETHYL-3-METHYLBENZENE
Formula: C10H12O2
Exact mass: 164.08373
Instrument type: EI-MS
m/z	relative intensity
14	26
15	96
27	76
29	26
38	27
39	204
40	16
41	42
42	31
43	755
44	20
50	50
51	130
52	43
53	42
62	29
63	100
64	31
65	182
66	15
74	13
75	11
76	18
77	367
78	309
79	186
89	52
90	27
91	289
92	30
93	237
94	17
102	22
103	243
104	335
105	660
106	53
107	369
108	27
119	52
120	13
121	75
122	999
123	79
164	331
165	33
