Mass spectrum: 1,2,5-TRI-O-ACETYL-3,4,6-TRI-O-METHYLMANNITOL; EI-MS
Formula: C15H26O9
Exact mass: 350.15768
Instrument type: EI-MS
m/z	relative intensity
43	640
44	15
45	190
59	20
69	10
71	90
74	50
75	50
85	20
87	270
88	20
89	30
99	70
100	10
101	170
113	20
115	60
117	90
129	999
130	80
131	10
145	50
159	60
161	440
182	60
189	270
