Mass spectrum: 3-ACETYL-5-PHENYL-2-ISOXAZOLINE; EI-MS
Formula: C11H11NO2
Exact mass: 189.07898
Instrument type: EI-MS
m/z	relative intensity
38	35
39	112
40	42
41	27
42	104
43	999
44	24
50	112
51	322
52	73
62	38
63	89
65	41
74	53
75	39
76	44
77	381
78	168
89	53
91	55
102	29
103	73
104	133
105	150
106	15
115	172
116	52
117	17
120	16
128	25
129	27
130	24
143	27
172	22
189	34
