Mass spectrum: (1R*,2R*)-1-(P-METHOXYPHENYL)-2-(1-PYRROLIDINYL)BUTANOL; EI-MS
Formula: C15H23NO2
Exact mass: 249.17288
Instrument type: EI-MS
m/z	relative intensity
96	10
110	16
111	192
112	999
113	72
135	16
136	33
231	13
249	1
