Mass spectrum: DIISOPROPYLHYDRAZONE ACETONE; EI-MS
Name: ACETONE DIISOPROPYLHYDRAZONE
Formula: C9H20N2
Exact mass: 156.16265
Instrument type: EI-MS
m/z	relative intensity
27	223
29	66
30	96
31	3
39	115
40	37
41	375
42	29
43	555
44	122
54	16
55	2
56	331
57	36
58	151
70	4
71	122
84	33
85	52
99	999
100	68
113	26
127	19
141	56
142	63
156	144
157	16
