Mass spectrum: 2-PHENYLETHYL ALCOHOL; EI-MS
Formula: C8H10O
Exact mass: 122.07316
Instrument type: EI-MS
m/z	relative intensity
27	26
29	14
31	50
38	16
39	107
40	12
41	26
50	35
51	76
52	21
53	10
62	18
63	51
64	14
65	178
66	13
74	11
77	53
78	43
79	12
89	32
90	11
91	999
92	593
93	46
103	29
104	26
122	286
123	28
