Mass spectrum: BUTYLMETHYLSILANE (METHYL-D3); EI-MS
Formula: C5H14Si
Exact mass: 102.08648
Instrument type: EI-MS
m/z	relative intensity
27	45
28	31
29	58
30	11
31	16
39	32
41	79
42	23
43	50
44	27
45	98
46	115
47	123
48	854
49	56
50	26
53	15
55	56
56	236
57	40
58	42
59	91
60	11
61	47
62	217
63	19
69	19
73	13
74	32
75	274
76	999
77	113
78	37
85	12
88	22
103	93
104	30
105	21
