Mass spectrum: 2-CHLORO-4-(4-FLUOROPHENYL)PYRIMIDINE; EI-MS
Formula: C10H6ClFN2
Exact mass: 208.02035
Instrument type: EI-MS
m/z	relative intensity
32	295
35	6
36	26
37	0
38	8
39	8
40	21
44	1
45	4
46	2
47	2
49	0
49.5	2
50	30
50.5	2
51	1
52	17
53	19
56	3
57	2
59	2
60	14
61	5
62	1
63	10
63.5	2
64	3
68	1
69	11
70	14
71	4
73	1
74	27
75	41
76	9
77	1
78	2
81	8
82	2
83	0
85	2
86	8
87	30
88	0
89	11
92	4
93	11
94	5
95	71
96	7
98	4
99	2
100	18
101	30
102	4
103	0
104	9
104.5	2
105	6
106	0
107	4
113	2
118	8
119	1
120	165
121	112
122	25
123	0
124	2
126	35
127	7
128	0
132	2
133	2
144	4
145	3
146	76
147	403
148	42
149	0
153	2
155	2
167	4
169	0
171	8
172	4
173	421
174	4
175	2
179	3
180	4
181	0
182	2
183	3
190	2
198	0
199	10
200	2
207	20
208	999
209	96
210	221
211	19
212	0
222	3
