Mass spectrum: PROPANAL DIISOAMYL ACETAL; EI-MS
Formula: C13H28O2
Exact mass: 216.20893
Instrument type: EI-MS
m/z	relative intensity
27	67
28	15
29	102
31	3
39	43
41	147
42	35
43	59
44	15
55	95
56	12
57	4
58	13
59	43
69	10
70	2
71	999
72	53
117	12
129	24
130	16
187	63
