Mass spectrum: METHACRYLIC ACID; EI-MS
Formula: C4H6O2
Exact mass: 86.03678
Instrument type: EI-MS
m/z	relative intensity
15	23
26	27
27	55
28	40
29	33
31	10
37	53
38	90
39	589
40	175
41	999
42	76
43	53
44	19
45	113
53	18
57	33
58	40
68	74
69	139
71	18
85	36
86	723
87	39
