Mass spectrum: TRANS-(4'METHYL-N,N,O)-AZOXYBENZENE; EI-MS
Formula: C13H12N2O
Exact mass: 212.09496
Instrument type: EI-MS
m/z	relative intensity
27	36
39	86
40	11
41	3
50	34
51	185
52	60
53	2
63	39
64	34
65	170
66	2
76	23
77	999
78	214
79	26
80	20
89	26
90	21
91	35
92	38
104	117
105	178
106	2
107	77
108	10
115	19
119	4
135	22
141	30
152	13
155	2
165	12
167	11
168	10
169	1
183	64
184	14
196	87
197	2
210	13
211	23
212	384
213	59
