Mass spectrum: ETHYL ISOBUTYL ETHER; EI-MS
Formula: C6H14O
Exact mass: 102.10447
Instrument type: EI-MS
m/z	relative intensity
14	29
15	121
26	46
27	29
28	65
29	432
30	36
31	76
33	34
38	28
39	140
40	3
41	273
42	69
44	166
45	6
55	45
56	45
57	135
58	4
59	999
60	35
61	25
73	8
78	30
102	71
