Mass spectrum: BUTYL ACETOACETATE; EI-MS
Formula: C8H14O3
Exact mass: 158.09429
Instrument type: EI-MS
m/z	relative intensity
15	43
26	20
27	145
29	189
31	46
32	24
39	68
41	242
42	153
43	999
44	20
55	33
56	347
57	194
58	42
60	128
61	37
69	26
73	16
84	46
85	263
86	10
87	19
102	32
103	183
