Mass spectrum: 4-AMINO-2-METHYLPYRIMIDINE; EI-MS
Formula: C5H7N3
Exact mass: 109.064
Instrument type: EI-MS
m/z	relative intensity
14	13
15	55
26	44
27	19
28	64
38	13
39	34
40	192
41	629
42	377
43	46
52	47
53	16
66	37
67	96
68	113
69	184
81	45
82	119
93	43
94	15
109	999
110	98
