Mass spectrum: N-(3-PHENYLPROPIONYL)PIPERIDIN-2-ONE; EI-MS
Formula: C14H17NO2
Exact mass: 231.12593
Instrument type: EI-MS
m/z	relative intensity
41	40
42	30
43	70
44	40
55	50
56	30
78	40
82	20
84	30
91	240
92	30
93	20
98	80
99	180
100	999
101	80
102	30
103	20
104	440
105	170
106	30
112	120
113	30
131	50
132	30
133	20
134	10
150	10
231	130
232	40
233	10
