Mass spectrum: 4-TERT-BUTYLCYCLOHEXANONE; EI-MS
Name: 4-(1,1-DIMETHYLETHYL)CYCLOHEXANONE
Formula: C10H18O
Exact mass: 154.13577
Instrument type: EI-MS
m/z	relative intensity
15	22
27	142
28	68
29	191
32	13
39	181
40	23
41	498
42	64
43	145
51	17
53	63
54	29
55	234
56	55
57	999
58	40
65	13
67	50
68	20
69	145
70	68
77	11
79	20
80	12
81	22
83	190
84	10
95	15
97	65
98	545
99	60
121	11
139	22
154	111
155	12
