Mass spectrum: 1,2-DIETHOXYETHANE; EI-MS
Formula: C6H14O2
Exact mass: 118.09938
Instrument type: EI-MS
m/z	relative intensity
27	48
28	39
29	349
30	10
31	999
32	14
41	59
43	76
44	47
45	471
46	12
47	38
59	629
60	22
61	15
72	23
73	61
74	231
75	12
118	3
