Mass spectrum: 4-BROMOANILINE; EI-MS
Formula: C6H6BrN
Exact mass: 170.96836
Instrument type: EI-MS
m/z	relative intensity
29	11
31	36
37	23
38	50
39	106
41	35
45	163
46	26
50	32
51	16
52	37
57	12
61	22
62	35
63	82
64	50
65	546
66	53
71	12
74	15
75	13
85	76
86	75
90	20
91	66
92	598
93	50
117	11
119	11
143	19
145	22
149	26
171	999
172	78
173	975
174	69
