Mass spectrum: 4'-HYDROXY-6,8-DIMETHYLFLAVANONE; EI-MS
Name: 2-(4-HYDROXYPHENYL)-6,8-DIMETHYLCHROMAN-4-ONE
Formula: C17H16O3
Exact mass: 268.10994
Instrument type: EI-MS
m/z	relative intensity
32	22
39	49
41	20
51	4
63	42
65	100
69	34
77	3
89	69
91	359
92	49
105	2
111.5	29
118	118
119	257
120	46
121	64
147	37
148	878
149	44
150	26
237	51
238	110
265	15
266	999
267	241
