Mass spectrum: PHENYL CHLOROFORMATE; EI-MS
Name: CHLOROFORMIC ACID PHENYL ESTER
Formula: C7H5ClO2
Exact mass: 155.99781
Instrument type: EI-MS
m/z	relative intensity
27	18
35	18
37	40
38	110
38.5	37
39	320
44	36
50	72
51	122
61	20
62	37
63	290
64	42
65	580
66	37
74	21
77	999
78	65
93	269
94	38
112	128
114	45
121	56
128	32
130	11
156	397
157	35
158	133
159	10
