Mass spectrum: 4-NITROPHENYL PENTAFLUOROBENZYL ETHER; EI-MS
Formula: C13H6F5NO3
Exact mass: 319.02678
Instrument type: EI-MS
m/z	relative intensity
52	24
53	9
54	9
61	1
62	40
63	126
64	82
65	2
69	21
74	19
75	22
76	2
77	17
80	12
81	25
92	1
93	22
99	17
112	19
117	2
131	27
143	16
150	12
155	2
161	82
162	17
181	999
182	9
319	79
320	11
