Mass spectrum: 10-UNDECENOIC ACID METHYL ESTER; EI-MS
Formula: C12H22O2
Exact mass: 198.16198
Instrument type: EI-MS
m/z	relative intensity
42	30
47	10
50	13
51	2
52	26
53	120
54	240
55	59
56	200
57	150
58	10
59	24
65	36
66	16
67	493
68	34
69	693
70	106
71	56
72	3
73	133
74	420
75	183
77	2
78	16
79	100
80	73
81	33
82	570
83	720
84	560
85	12
86	20
87	999
88	100
91	3
93	66
94	93
95	166
96	69
97	346
98	353
99	60
100	2
101	133
102	20
106	13
107	6
108	23
109	110
110	156
111	12
112	16
113	56
114	96
115	9
116	10
118	16
119	80
120	1
121	16
122	116
123	203
124	54
125	133
127	26
128	43
129	2
133	20
137	146
138	76
139	1
141	26
143	10
148	80
149	18
150	20
151	16
154	10
155	3
166	163
167	56
198	13
