Mass spectrum: 1,2,3-TRICHLOROPROPANE; EI-MS
Name: GLYCEROL TRICHLOROHYDRIN
Formula: C3H5Cl3
Exact mass: 145.94568
Instrument type: EI-MS
m/z	relative intensity
39	80
41	34
49	97
51	33
61	213
62	94
63	82
64	29
75	999
76	35
77	303
83	15
85	10
96	30
97	141
98	21
99	89
101	19
109	13
110	448
111	44
112	290
113	26
114	50
