Mass spectrum: 1-BUTANAMINE; EI-MS
Name: BUTYLAMINE
Formula: C4H11N
Exact mass: 73.08915
Instrument type: EI-MS
m/z	relative intensity
27	21
28	36
29	18
30	999
31	15
39	12
41	30
42	10
44	14
73	83
