Mass spectrum: 1-PHENYL-2-TRIMETHYLSI1OXYETHANE; EI-MS
Formula: C11H18OSi
Exact mass: 194.11269
Instrument type: EI-MS
m/z	relative intensity
43	32
44	17
45	67
47	32
51	25
58	40
59	36
61	25
65	19
72	18
73	999
74	88
75	282
76	24
77	76
78	21
79	37
88	14
90	28
91	19
103	734
104	112
105	221
106	19
161	49
179	462
180	75
181	21
194	2
