Mass spectrum: AZODICARBONAMIDE; EI-MS
Formula: C2H4N4O2
Exact mass: 116.03343
Instrument type: EI-MS
m/z	relative intensity
15	44
16	140
17	36
27	28
28	227
29	178
30	22
31	79
32	205
42	163
43	527
44	999
45	45
60	28
75	58
101	31
