Mass spectrum: ISOPROPYL OCTANOATE; EI-MS
Formula: C11H22O2
Exact mass: 186.16198
Instrument type: EI-MS
m/z	relative intensity
15	12
26	10
27	227
29	200
39	136
41	486
42	188
43	999
44	33
45	49
53	17
54	14
55	244
56	61
57	448
58	19
59	241
60	576
61	104
67	22
69	59
70	21
71	13
73	201
74	23
82	16
83	60
84	132
85	90
87	82
89	22
97	31
98	22
101	103
102	301
103	33
109	15
115	36
125	14
127	399
128	36
144	156
145	263
146	19
