Mass spectrum: RESERPINE; EI-MS
Formula: C33H40N2O9
Exact mass: 608.27338
Instrument type: EI-MS
m/z	relative intensity
195	999
251	380
265	150
366	2
381	250
397	250
414	200
577	1
593	100
607	320
608	520
609	2
610	50
