Mass spectrum: PARA TOLUALDEHYDE; EI-MS
Formula: C8H8O
Exact mass: 120.05751
Instrument type: EI-MS
m/z	relative intensity
27	21
29	11
37	11
38	25
39	166
40	14
41	42
43	18
50	49
51	76
61	14
62	39
63	102
64	20
65	272
66	18
89	67
90	32
91	999
92	88
119	846
120	705
121	60
