Mass spectrum: PHENYLETHYL LACTATE; EI-MS
Formula: C11H14O3
Exact mass: 194.09429
Instrument type: EI-MS
m/z	relative intensity
15	12
19	11
27	66
29	4
39	43
43	85
45	425
50	1
51	60
52	12
63	18
65	6
77	109
78	63
79	76
89	1
91	160
92	69
103	65
104	999
105	388
106	25
122	18
