Mass spectrum: METHYL HEPTADECANOATE; EI-MS
Formula: C18H36O2
Exact mass: 284.27153
Instrument type: EI-MS
m/z	relative intensity
40	16
41	465
42	101
43	64
44	42
45	19
53	18
54	2
55	330
56	63
57	200
58	2
59	104
67	28
68	14
69	13
70	26
71	57
73	22
74	999
75	195
76	11
81	20
82	1
83	71
84	29
85	25
87	57
88	47
95	15
96	7
97	5
98	21
101	37
111	15
115	1
116	6
129	36
130	8
143	7
144	7
157	9
171	6
185	2
186	4
199	21
200	4
213	1
227	7
241	34
242	6
253	1
255	10
284	28
285	6
