Mass spectrum: DIBENZOYLMETHANE; EI-MS
Name: 1,3-DIPHENYL-1,3-PROPANDIONE
Formula: C15H12O2
Exact mass: 224.08373
Instrument type: EI-MS
m/z	relative intensity
27	14
39	43
43	30
50	55
51	215
52	24
63	25
65	54
69	518
70	19
76	46
77	683
78	90
89	40
91	43
103	28
105	999
106	80
121	28
122	49
147	451
148	46
162	23
195	11
196	12
207	26
208	19
223	729
224	707
225	111
