Mass spectrum: BENZOIN; EI-MS
Name: 2-HYDROXY-1,2-DIPHENYLETHANONE
Formula: C14H12O2
Exact mass: 212.08373
Instrument type: EI-MS
m/z	relative intensity
105	999
107	674
212	71
213	13
