Mass spectrum: HEXYL LACTATE; EI-MS
Formula: C9H18O3
Exact mass: 174.12559
Instrument type: EI-MS
m/z	relative intensity
15	11
19	14
27	122
29	10
31	12
39	54
41	185
42	7
43	553
44	34
45	999
46	2
55	91
56	112
57	75
63	2
69	36
75	19
84	138
85	10
91	23
113	12
