Mass spectrum: CITRONELLYL ACETATE; EI-MS
Name: ACETIC ACID 3,7-DIMETHYL-6-OCTEN-1-OL ESTER
Formula: C12H22O2
Exact mass: 198.16198
Instrument type: EI-MS
m/z	relative intensity
41	245
43	508
55	501
56	153
68	547
69	999
81	893
82	799
95	891
96	220
109	347
110	81
123	568
124	50
138	298
139	36
