Mass spectrum: MEBUTAMATE; EI-MS
Name: 2-SEC-BUTYL-2-METHYL-1,3-PROPANEDIOL DICARBAMATE
Formula: C10H20N2O4
Exact mass: 232.14231
Instrument type: EI-MS
m/z	relative intensity
26	9
27	77
28	74
29	16
30	13
31	79
32	9
39	1
40	19
41	294
42	49
43	21
44	249
45	64
46	17
47	1
51	7
52	5
53	49
54	5
55	624
56	115
57	245
58	4
59	70
60	8
61	8
62	41
63	9
64	4
65	10
66	1
67	61
68	34
69	344
70	13
71	421
72	640
73	149
74	2
75	169
76	16
77	10
78	0
79	18
80	3
81	84
82	6
83	89
84	129
85	57
86	1
87	4
88	13
89	18
91	1
92	19
93	6
94	7
95	16
96	29
97	999
98	179
99	8
100	24
101	10
102	9
103	0
104	25
105	13
106	1
109	1
110	349
111	39
112	10
113	2
114	52
115	204
116	50
117	1
118	6
119	5
120	1
126	0
127	3
128	159
129	19
130	0
131	3
132	39
133	9
134	1
135	11
136	9
158	309
159	3
160	4
175	44
176	9
