Mass spectrum: ACETAL; EI-MS
Name: 1,1-DIETHOXYETHANE
Formula: C6H14O2
Exact mass: 118.09938
Instrument type: EI-MS
m/z	relative intensity
14	12
15	57
19	35
26	20
27	116
28	39
29	220
31	41
42	14
43	167
44	45
45	999
46	20
47	175
61	36
73	481
74	23
75	48
103	130
104	6
117	2
