Mass spectrum: 2-HEPTENAL O-2,3,4,5,6-PENTAFLUOROBENZYLOXIME; EI-MS
Formula: C14H14F5NO
Exact mass: 307.09956
Instrument type: EI-MS
m/z	relative intensity
42	27
43	100
44	122
51	9
53	52
54	57
55	53
56	28
57	115
67	43
69	30
80	26
81	13
84	15
85	27
99	30
117	13
126	16
161	14
181	999
182	62
250	172
