Mass spectrum: ETHYL 4-METHYLBENZOATE; EI-MS
Formula: C10H12O2
Exact mass: 164.08373
Instrument type: EI-MS
m/z	relative intensity
29	15
65	80
89	11
90	2
91	301
92	37
105	14
119	999
120	121
136	319
137	28
149	4
163	14
164	372
165	42
