Mass spectrum: METHYL 3-OXO-5-(1-CYCLOPENTENYL)PENTANOATE; EI-MS
Formula: C11H16O3
Exact mass: 196.10994
Instrument type: EI-MS
m/z	relative intensity
39	490
40	100
41	580
42	150
43	280
44	30
45	30
46	10
47	10
50	30
51	100
52	80
53	310
54	50
55	260
56	30
57	90
59	340
60	10
61	10
62	10
63	30
64	10
65	160
66	140
67	340
68	40
69	490
70	10
71	20
74	90
75	30
77	260
78	90
79	999
80	970
81	490
82	30
83	10
84	60
85	30
91	160
92	30
93	160
94	700
95	800
96	80
97	10
98	10
101	240
102	10
103	20
104	50
105	100
106	20
107	40
108	50
109	20
115	10
116	70
117	50
118	50
119	80
120	10
121	50
122	600
123	240
124	30
127	10
129	10
133	10
134	10
135	20
136	40
137	20
138	10
146	10
147	10
148	10
149	10
153	10
159	10
163	10
164	40
165	30
178	260
179	30
184	10
196	170
197	30
