Mass spectrum: 2-(4-METHYLBENZOYL)INDOLE; EI-MS
Name: 2-INDOLYL P-TOLYL KETONE
Formula: C16H13NO
Exact mass: 235.09971
Instrument type: EI-MS
m/z	relative intensity
39	40
41	12
63	50
65	17
88	12
89	400
90	66
91	43
92	19
103.5	44
115	96
116	9
116.5	12
117	14
119	293
143	31
144	347
145	13
191	12
204	2
206	33
207	59
218	81
219	6
220	480
221	71
234	147
235	999
236	187
