Mass spectrum: O-DICHLOROBENZENE; EI-MS
Formula: C6H4Cl2
Exact mass: 145.96901
Instrument type: EI-MS
m/z	relative intensity
37	30
38	20
49	23
50	10
51	33
55	50
73	80
74	12
75	205
76	30
84	35
85	4
110	38
111	371
112	35
113	12
146	999
147	75
148	555
149	4
150	105
