Mass spectrum: 6-PENTYL-ALPHA-PYRONE; EI-MS
Formula: C10H14O2
Exact mass: 166.09938
Instrument type: EI-MS
m/z	relative intensity
29	21
39	225
41	32
43	42
53	21
55	43
67	21
68	338
69	21
81	512
82	516
94	42
95	999
96	69
109	10
110	395
111	20
129	42
138	116
166	202
167	12
