Mass spectrum: ANILINE; EI-MS
Name: AMINOBENZENE
Formula: C6H7N
Exact mass: 93.05785
Instrument type: EI-MS
m/z	relative intensity
27	15
37	18
38	36
39	107
40	43
41	40
45.5	15
46.5	47
50	27
51	32
52	35
53	14
54	35
62	21
63	37
64	26
65	180
66	424
67	43
77	14
78	15
92	115
93	999
94	67
