Mass spectrum: 1-HYDROXY-2-NAPHTHOIC ACID METHYL ESTER; EI-MS
Formula: C12H10O3
Exact mass: 202.06299
Instrument type: EI-MS
m/z	relative intensity
63	103
71	131
85	79
113	11
114	374
115	191
142	625
143	10
170	999
171	170
202	413
203	62
