Mass spectrum: ISOVALERALDEHYDE ISOPENTYL PROPYL ACETAL; EI-MS
Name: ISOVALERALDEHYDE ISOAMYL PROPYL ACETAL
Formula: C13H28O2
Exact mass: 216.20893
Instrument type: EI-MS
m/z	relative intensity
27	133
28	20
29	124
31	4
39	62
41	274
42	56
43	94
44	57
45	91
47	17
53	1
55	93
56	15
57	42
69	22
70	38
71	999
72	54
85	1
87	149
89	100
129	258
130	2
157	96
159	175
160	15
