Mass spectrum: 2-(2-AMINO-2-METHYLPROPYL)-3-(1,2,5-TRIMETHYL-1,2,3,6-TETRAHYDRO-4-PYRIDYL)INDOLE; EI-MS
Formula: C20H29N3
Exact mass: 311.23615
Instrument type: EI-MS
m/z	relative intensity
58	999
77	21
115	13
128	1
130	22
167	22
180	32
181	3
182	31
196	23
197	207
198	3
211	27
239	102
240	21
254	35
255	65
311	51
