Mass spectrum: NONACOSANE; EI-MS
Formula: C29H60
Exact mass: 408.4695
Instrument type: EI-MS
m/z	relative intensity
41	332
42	104
43	987
45	16
54	17
55	293
56	183
57	955
58	106
68	53
69	294
70	111
71	999
72	73
82	40
83	128
84	102
85	945
86	74
95	16
97	147
98	89
99	217
100	15
110	22
111	91
112	92
113	137
114	21
125	34
126	76
127	165
139	25
140	46
141	111
154	31
155	102
156	12
168	52
169	41
182	27
183	75
196	15
197	52
207	64
208	19
211	52
212	11
224	25
225	16
238	32
239	45
252	20
253	37
266	10
267	32
283	13
294	13
295	27
308	10
309	18
323	23
337	21
351	11
408	51
409	19
