Mass spectrum: N-HEXYLACETAMIDE; EI-MS
Name: ACETYLAMINOHEXANE
Formula: C8H17NO
Exact mass: 143.13101
Instrument type: EI-MS
m/z	relative intensity
30	950
31	23
42	21
43	233
44	332
45	73
55	16
56	53
58	96
59	14
60	481
61	12
71	17
72	869
73	999
74	43
86	438
87	164
100	349
101	121
114	315
115	27
128	156
129	12
143	329
144	84
