Mass spectrum: 4-OCTYLBENZOIC ACID TRIMETHYLSILYL ESTER; EI-MS
Formula: C18H30O2Si
Exact mass: 306.20151
Instrument type: EI-MS
m/z	relative intensity
41	13
43	59
44	26
55	4
57	13
73	119
75	59
77	6
89	19
90	79
91	165
103	3
104	19
105	19
115	13
118	7
131	13
148	19
192	26
193	9
205	26
207	26
217	198
218	3
247	99
248	19
262	13
291	999
292	231
293	46
306	66
307	6
