Mass spectrum: 3-PENTANONE; EI-MS
Name: DIETHYL KETONE
Formula: C5H10O
Exact mass: 86.07316
Instrument type: EI-MS
m/z	relative intensity
15	14
26	50
27	228
28	7
29	781
30	18
39	22
41	2
42	27
43	22
55	13
56	3
57	999
58	35
86	198
87	15
