Mass spectrum: HEPTANENITRILE; EI-MS
Formula: C7H13N
Exact mass: 111.1048
Instrument type: EI-MS
m/z	relative intensity
14	10
15	69
18	15
26	10
27	622
28	203
29	370
30	2
37	11
38	43
39	353
40	18
41	999
42	140
43	503
44	2
45	15
50	20
51	31
52	3
53	53
54	430
55	371
56	6
57	100
66	14
67	20
68	15
69	91
70	15
71	52
81	6
82	684
83	511
84	32
96	9
110	40
