Mass spectrum: ISOBUTYL PHENYLACETATE; EI-MS
Formula: C12H16O2
Exact mass: 192.11503
Instrument type: EI-MS
m/z	relative intensity
29	409
41	484
42	15
43	30
55	18
56	67
57	999
58	40
65	40
71	15
91	688
92	252
93	16
119	39
136	172
137	64
192	6
