Mass spectrum: N,N-DIETHYLNICOTINAMIDE; EI-MS
Formula: C10H14N2O
Exact mass: 178.11061
Instrument type: EI-MS
m/z	relative intensity
72	33
78	163
79	16
106	999
107	77
135	15
149	64
150	11
163	50
177	453
178	235
179	24
