Mass spectrum: 1,2-DI-TERT-BUTYL-3-PIVALOYLCYCLOPROPENE; EI-MS
Formula: C16H28O
Exact mass: 236.21402
Instrument type: EI-MS
m/z	relative intensity
41	140
43	50
55	50
57	31
67	60
95	70
108	90
151	999
152	120
221	150
236	6
