Mass spectrum: HEXACHLOROETHANE; EI-MS
Formula: C2Cl6
Exact mass: 233.81312
Instrument type: EI-MS
m/z	relative intensity
47	304
49	99
59	140
61	4
82	217
83	82
84	137
94	31
96	179
98	30
117	999
119	83
121	286
123	31
129	101
131	9
133	31
164	231
166	323
168	16
170	31
199	347
201	578
203	38
205	116
