Mass spectrum: N-(2,2-DIMETHYL-1-PHENYLTHIOPROPYL)PYRROLIDINE; EI-MS
Formula: C15H23NS
Exact mass: 249.15512
Instrument type: EI-MS
m/z	relative intensity
18	209
66	200
82	857
84	55
109	150
110	999
139	224
140	970
141	39
