Mass spectrum: 1.2.4-TRIMETHYLBENZENE; EI-MS
Name: PSEUDOCUMENE
Formula: C9H12
Exact mass: 120.0939
Instrument type: EI-MS
m/z	relative intensity
27	62
38	11
39	103
40	13
41	53
50	31
51	82
52	29
53	36
57.5	19
58	24
59	28
62	15
63	43
65	56
74	13
75	12
77	127
78	47
79	81
89	14
91	101
92	18
102	14
103	64
104	32
105	999
106	92
115	34
116	34
119	153
120	608
121	63
