Mass spectrum: PERMETHYLATED N-ACETYLGALACTOSAMINYL-(BETA1,3)-GALACTOSYL-(ALPHA1,4)-GALACTOSYL-(BETA1,4)-GLUCITOL; EI-MS
Formula: C41H77NO21
Exact mass: 919.49881
Instrument type: EI-MS
m/z	relative intensity
101	370
753	9
111	163
754	2
115	126
800	2
127	409
816	1
129	350
830	1
142	208
859	0
155	198
872	1
159	860
888	4
187	47
204	15
205	9
217	6
219	48
220	5
228	36
233	13
260	999
261	20
262	9
279	37
289	64
464	41
465	8
525	4
535	3
595	3
611	2
612	3
668	2
687	39
