Mass spectrum: ORTHO-METHOXYPHENOL; EI-MS
Formula: C7H8O2
Exact mass: 124.05243
Instrument type: EI-MS
m/z	relative intensity
15	20
18	21
26	28
27	7
28	25
29	24
37	25
38	3
39	70
41	18
50	23
51	6
52	61
53	126
54	17
55	3
62	19
63	33
64	15
65	4
66	21
77	27
79	19
80	2
81	422
82	30
95	17
109	999
110	71
124	779
125	76
