Mass spectrum: TRIPHENYLPHOSPINE SULFIDE; EI-MS
Formula: C18H15PS
Exact mass: 294.06321
Instrument type: EI-MS
m/z	relative intensity
50	43
57	19
65	38
75	22
76	16
77	175
78	43
81	2
103	20
107	145
108	113
109	9
115	44
133	33
139	199
140	3
141	28
152	131
153	36
154	2
157	48
170	39
181	26
183	95
184	171
185	590
186	86
215	9
217	83
218	17
261	80
262	16
263	32
292	19
293	580
294	999
295	236
296	67
