Mass spectrum: 1,2-PROPANEDIOL; EI-MS
Formula: C3H8O2
Exact mass: 76.05243
Instrument type: EI-MS
m/z	relative intensity
15	61
19	66
26	11
27	105
28	36
29	88
31	115
33	15
39	10
41	20
42	20
43	148
44	57
45	999
46	24
57	21
61	44
