Mass spectrum: 2-BUTOXYETHYL ACETATE; EI-MS
Formula: C8H16O3
Exact mass: 160.10994
Instrument type: EI-MS
m/z	relative intensity
15	46
27	62
28	46
29	238
31	15
39	28
41	304
42	27
43	902
44	103
45	86
55	39
56	485
57	999
58	47
61	60
70	23
71	17
73	27
74	56
85	165
87	317
88	90
100	60
