Mass spectrum: 2,6-DIMETHYLPYRIDINE; EI-MS
Formula: C7H9N
Exact mass: 107.0735
Instrument type: EI-MS
m/z	relative intensity
27	108
28	33
38	118
39	393
40	21
41	20
50	55
51	73
53	11
64	20
65	183
66	220
67	12
77	56
78	13
79	90
92	180
93	23
105	20
106	293
107	999
108	82
