Mass spectrum: GLYCEROL TRILAURATE; EI-MS
Name: TRILAURIN
Formula: C39H74O6
Exact mass: 638.54854
Instrument type: EI-MS
m/z	relative intensity
27	13
28	17
29	10
41	21
42	14
43	37
45	10
55	38
56	21
57	63
60	29
69	23
70	17
71	44
73	31
81	12
83	28
84	71
85	49
95	25
97	27
98	119
99	18
109	17
111	17
112	61
113	15
117	14
126	29
129	19
140	15
157	12
158	58
171	42
181	10
182	84
183	999
184	135
185	17
199	10
200	15
213	13
224	22
227	24
238	10
243	12
255	90
256	56
258	385
259	67
275	17
298	224
299	140
300	25
311	87
312	18
317	13
353	17
354	10
367	37
381	12
395	27
396	12
409	16
410	15
425	117
426	34
437	32
439	407
440	882
441	242
442	42
457	34
458	11
480	21
499	26
620	4
638	4
639	2
