Mass spectrum: N-OCTYL(TERT-BUTYLDIMETHYLSILYL)AMINE; EI-MS
Formula: C14H33NSi
Exact mass: 243.23823
Instrument type: EI-MS
m/z	relative intensity
41	258
43	157
44	44
45	85
55	119
57	75
58	117
59	749
60	94
69	116
72	64
73	999
74	261
75	145
85	58
86	164
87	119
88	822
89	75
99	61
100	79
114	83
128	57
144	282
187	467
188	127
228	32
243	20
