Mass spectrum: BENZYLHYDRAZINE; EI-MS
Formula: C7H10N2
Exact mass: 122.0844
Instrument type: EI-MS
m/z	relative intensity
27	14
30	11
31	27
38	1
39	56
41	15
43	25
44	1
45	27
50	26
51	58
52	2
62	8
63	27
64	8
65	14
66	10
76	9
77	57
78	2
79	14
89	20
90	8
91	999
92	160
93	30
103	8
104	3
105	11
106	25
107	15
121	1
122	318
123	31
