Mass spectrum: METHYL 10-UNDECENOATE; EI-MS
Formula: C12H22O2
Exact mass: 198.16198
Instrument type: EI-MS
m/z	relative intensity
15	153
27	167
28	58
29	232
31	19
39	208
40	39
41	697
42	131
43	207
44	12
45	41
51	11
53	75
54	131
55	758
56	91
57	42
59	177
65	15
66	11
67	157
68	150
69	328
70	41
71	38
72	15
73	68
74	999
75	90
77	11
79	33
80	32
81	136
82	220
83	262
84	268
85	48
87	453
88	53
93	19
94	36
95	69
96	257
97	122
98	165
99	27
101	58
102	11
107	19
109	11
110	32
111	75
112	39
113	12
114	44
115	51
116	13
119	16
122	61
123	85
124	259
125	68
127	19
128	34
129	17
137	56
138	36
141	19
143	12
148	38
149	76
150	11
155	17
166	194
167	75
198	12
