Mass spectrum: CROTONIC ACID BUTYL ESTER; EI-MS
Formula: C8H14O2
Exact mass: 142.09938
Instrument type: EI-MS
m/z	relative intensity
15	12
27	65
28	26
29	95
38	12
39	169
40	32
41	350
42	20
43	17
55	48
56	194
57	34
68	20
69	999
70	51
82	11
86	12
87	628
88	30
99	18
127	15
