Mass spectrum: 3-INDOLEACRYLIC ACID METHYL ESTER; EI-MS
Formula: C12H11NO2
Exact mass: 201.07898
Instrument type: EI-MS
m/z	relative intensity
42	40
63	56
67	81
70	7
71	130
89	56
100	97
107	7
114	121
115	463
116	56
130	13
140	56
141	154
142	170
143	20
156	97
170	999
171	130
201	84
202	65
