Mass spectrum: 4-PYRIDINECARBOXYLIC ACID METHYL ESTER; EI-MS
Name: ISONICOTINIC ACID METHYL ESTER
Formula: C7H7NO2
Exact mass: 137.04768
Instrument type: EI-MS
m/z	relative intensity
36	22
38	37
39	65
49	5
50	396
51	999
52	100
53	3
65	25
66	20
75	25
76	4
77	45
78	723
79	138
92	3
93	37
105	25
106	206
107	18
108	25
119	47
136	25
137	80
138	175
139	12
