Mass spectrum: HEXAETHYLDISILANE; EI-MS
Formula: C12H30Si2
Exact mass: 230.1886
Instrument type: EI-MS
m/z	relative intensity
43	33
45	37
55	20
56	12
57	101
58	67
59	378
60	33
61	22
71	14
73	17
75	14
83	13
85	73
86	76
87	999
88	123
89	139
90	17
101	13
103	14
113	63
114	153
115	995
116	143
117	202
118	28
119	12
143	11
144	10
145	276
146	47
147	22
173	290
174	57
175	26
201	302
202	65
203	27
230	254
231	63
232	24
