Mass spectrum: 2-BUTOXYETHYL BUTYRATE; EI-MS
Formula: C10H20O3
Exact mass: 188.14124
Instrument type: EI-MS
m/z	relative intensity
15	20
26	16
27	259
28	50
29	330
30	13
31	26
39	106
40	12
41	490
42	109
43	684
44	139
45	156
55	78
56	766
57	999
58	80
60	18
63	11
69	11
70	19
71	837
72	54
73	45
74	18
85	348
86	59
87	132
88	82
89	106
99	11
100	133
101	44
102	11
115	168
116	96
117	50
