Mass spectrum: DIBUTYL 3-METHYL-1-(N-TRIFLUOROACETYLAMINO)BUTYLPHOSPHONATE; EI-MS
Formula: C15H29F3NO4P
Exact mass: 375.17863
Instrument type: EI-MS
m/z	relative intensity
69	52
82	34
83	555
96	2
97	14
99	44
106	14
109	4
110	49
111	14
114	24
122	3
123	201
124	16
126	39
137	3
138	544
139	999
140	255
141	2
150	64
151	25
152	10
155	4
164	19
165	30
166	76
178	2
179	38
180	56
181	11
182	12
183	20
189	17
194	156
195	4
202	12
206	38
207	167
208	17
211	36
220	69
246	88
248	3
263	33
264	214
265	18
276	2
302	24
304	10
319	66
320	4
332	35
375	5
376	28
370	5
