Mass spectrum: 3-METHOXY-4-(TRIMETHYLSILYL)OXYPHENYLACETIC ACID TRIMETHYLSILYL ESTER; EI-MS
Name: TRIMETHYLSILYL (3-METHOXY-4-TRIMETHYLSILOXY)PHENYLACETATE
Formula: C15H26O4Si2
Exact mass: 326.13696
Instrument type: EI-MS
m/z	relative intensity
43	52
44	90
45	274
47	7
49	50
51	48
59	56
63	5
65	46
71	44
73	999
74	9
75	302
76	48
77	288
78	3
79	46
91	22
93	48
105	5
107	46
147	44
149	46
163	5
179	112
206	44
209	158
210	5
267	78
296	50
311	76
326	102
