Mass spectrum: ACETOPHENONE DIETHYL ACETAL; EI-MS
Formula: C12H18O2
Exact mass: 194.13068
Instrument type: EI-MS
m/z	relative intensity
15	16
26	24
27	136
29	106
38	14
39	75
41	20
42	27
43	59
50	77
51	246
52	42
53	11
62	22
63	58
64	15
65	90
74	35
75	29
76	44
77	385
78	473
79	30
89	24
90	12
91	297
92	46
101	11
102	54
103	169
104	354
105	999
106	66
120	202
121	16
133	18
147	175
148	267
149	26
