Mass spectrum: ETHYL 4-CHLOROBENZOATE; EI-MS
Formula: C9H9ClO2
Exact mass: 184.02911
Instrument type: EI-MS
m/z	relative intensity
26	12
27	80
29	100
43	2
45	42
50	101
51	49
65	2
73	10
74	57
75	290
76	9
77	30
85	31
87	10
103	1
104	36
105	15
110	12
111	38
112	38
113	127
139	999
140	12
141	348
142	36
149	36
156	40
157	32
158	134
169	17
183	1
184	265
185	30
186	90
