Mass spectrum: BUTYL (3S)-3-HYDROXY-5-METHOXYPENTANOATE; EI-MS
Formula: C10H20O4
Exact mass: 204.13616
Instrument type: EI-MS
m/z	relative intensity
39	86
40	31
41	563
42	16
43	352
44	36
45	147
53	3
54	31
55	90
56	461
57	26
58	103
59	73
60	105
61	5
68	36
69	27
70	67
71	26
72	46
81	38
82	25
84	41
85	141
86	48
87	211
89	999
90	46
97	211
98	328
99	16
100	115
101	109
102	164
103	2
112	29
113	297
114	34
115	4
116	367
117	63
129	134
130	9
131	63
132	19
145	139
146	2
186	25
205	6
