Mass spectrum: LIMONENE DIOXIDE; EI-MS
Name: 1,2-EPOXY-4-(1,2-EPOXY-1-METHYLETHYL)-1-METHYLCYCLOHEXANE
Formula: C10H16O2
Exact mass: 168.11503
Instrument type: EI-MS
m/z	relative intensity
14	12
15	27
27	138
29	108
31	26
39	148
40	13
41	204
42	27
43	999
44	50
45	37
51	25
53	93
54	31
55	169
56	21
57	48
58	82
59	22
65	25
66	14
67	169
68	41
69	74
70	20
71	83
77	54
79	110
80	41
81	99
82	107
83	89
84	37
85	35
91	54
92	65
93	137
94	69
95	215
96	22
97	65
98	19
105	30
106	11
107	161
108	42
109	57
110	41
111	41
121	30
122	15
123	78
125	25
135	15
137	23
138	19
