Mass spectrum: BETA-METHYLSTYRENE; EI-MS
Formula: C9H10
Exact mass: 118.07825
Instrument type: EI-MS
m/z	relative intensity
40	10
41	20
43	10
50	50
51	70
52	20
53	15
55	10
62	25
63	85
64	10
65	60
66	10
70	10
74	25
75	15
76	15
77	85
78	95
79	15
87	10
89	45
90	15
91	270
92	10
102	10
103	80
104	10
114	10
115	315
116	55
117	999
118	675
119	55
