Mass spectrum: DIMETHOXYETHYL PHTHALATE; EI-MS
Formula: C14H18O6
Exact mass: 282.11034
Instrument type: EI-MS
m/z	relative intensity
45	103
50	27
57	824
58	999
59	38
65	21
75	23
76	6
77	30
93	14
104	74
105	2
132	19
133	14
149	166
150	2
163	45
167	29
176	35
193	2
194	16
206	29
207	92
208	1
224	19
225	21
252	16
