Mass spectrum: (2S,3S)-2-BENZYLOXY-4-(TERT-BUTYLDIMETHYLSILYLOXY)BUTAN-1,3-DIOL; EI-MS
Formula: C17H30O4Si
Exact mass: 326.19134
Instrument type: EI-MS
m/z	relative intensity
73	23
75	75
89	25
93	999
94	86
117	96
145	36
159	4
177	18
269	9
