Mass spectrum: 2-METHYL-4-(2,6,6-TRIMETHYLCYCLOHEXENYL)-2-BUTENAL; EI-MS
Formula: C14H22O
Exact mass: 206.16707
Instrument type: EI-MS
m/z	relative intensity
27	136
28	23
29	207
39	203
40	30
41	518
42	28
43	226
45	13
51	61
52	27
53	208
54	26
55	423
56	28
57	97
58	20
63	20
65	120
66	35
67	230
68	25
69	263
70	21
71	50
77	236
78	54
79	265
80	80
81	605
82	19
83	107
84	16
85	22
88	67
89	13
91	403
92	68
93	472
94	68
95	646
96	95
97	60
103	33
104	12
105	332
106	55
107	999
108	423
109	553
110	58
111	47
115	35
116	16
117	56
118	17
119	137
120	43
121	543
122	142
123	876
124	110
125	18
128	17
129	20
130	15
131	148
132	42
133	215
134	36
135	518
136	188
137	98
138	13
139	13
144	15
145	70
146	12
147	102
148	27
149	122
150	82
151	16
158	24
159	14
161	25
162	12
163	358
164	62
165	56
166	13
173	122
174	20
175	18
177	42
191	833
192	126
193	13
206	985
207	170
208	16
