Mass spectrum: BUTYL SALICYLATE; EI-MS
Formula: C11H14O3
Exact mass: 194.09429
Instrument type: EI-MS
m/z	relative intensity
29	139
39	12
41	127
55	11
56	37
57	72
65	63
91	10
92	244
93	57
120	999
121	356
122	22
138	341
139	36
194	204
195	22
