Mass spectrum: CIS-3-HEXENYL BENZOATE; EI-MS
Formula: C13H16O2
Exact mass: 204.11503
Instrument type: EI-MS
m/z	relative intensity
16	12
27	77
29	31
39	112
41	173
42	21
50	47
51	199
52	17
53	42
54	55
55	49
65	17
66	11
67	633
68	34
75	12
76	31
77	612
78	38
79	23
81	41
82	975
83	53
105	999
106	61
123	38
