Mass spectrum: 1-METHOXY-2-PROPANOL; EI-MS
Formula: C4H10O2
Exact mass: 90.06808
Instrument type: EI-MS
m/z	relative intensity
15	15
27	16
29	23
31	105
33	14
41	21
43	48
44	20
45	999
46	59
47	397
57	16
59	52
75	50
90	11
