Mass spectrum: L-MENTHONE; EI-MS
Name: L-P-MENTHAN-3-ONE
Formula: C10H18O
Exact mass: 154.13577
Instrument type: EI-MS
m/z	relative intensity
42	78
43	145
53	36
54	14
55	331
56	219
57	51
58	14
67	42
68	36
69	540
70	259
71	42
77	14
79	23
81	42
82	15
83	198
84	121
85	19
93	28
94	18
95	141
96	20
97	207
98	100
109	21
110	76
111	250
112	999
113	78
121	46
125	71
139	429
140	45
154	326
155	38
