Mass spectrum: 2,3-DIMETHYL-5-NITRO-1,7-ETHANOINDOLE; EI-MS
Name: 1,2-DIHYDRO-4,5-DIMETHYL-7-NITROPYRROLO(3,2,1-H,I)INDOLE
Formula: C12H12N2O2
Exact mass: 216.08988
Instrument type: EI-MS
m/z	relative intensity
45	283
51	39
53	44
54	4
55	519
56	133
57	667
60	23
61	31
63	30
67	139
68	13
69	333
70	144
71	361
72	26
77	85
79	35
81	637
82	11
83	244
84	93
85	189
87	3
91	39
93	81
95	118
96	6
97	167
98	78
99	41
107	4
111	63
113	30
115	81
135	3
136	61
137	135
141	30
143	4
149	87
154	141
155	167
158	3
167	68
168	185
169	489
170	93
171	141
185	107
186	228
201	4
215	233
216	999
217	120
