Mass spectrum: 1,1,1,3,3,3-HEXAMETHYLDISILAZANE; EI-MS
Formula: C6H19NSi2
Exact mass: 161.1056
Instrument type: EI-MS
m/z	relative intensity
43	12
45	46
59	47
65	37
66	37
73	134
74	24
75	28
86	11
100	42
102	11
113	16
114	11
116	19
117	13
130	246
131	76
132	29
133	17
146	999
147	968
148	205
149	71
161	43
