Mass spectrum: DIMETHYL(PHENYLDIMETHYLSILYLMETHYL)AMINE; EI-MS
Formula: C11H19NSi
Exact mass: 193.12868
Instrument type: EI-MS
m/z	relative intensity
42	30
43	26
53	11
57	24
58	999
59	38
78	11
105	19
107	13
121	14
135	59
137	12
178	15
193	38
