Mass spectrum: 13-DOCOSENOIC ACID METHYL ESTER; EI-MS
Formula: C23H44O2
Exact mass: 352.33413
Instrument type: EI-MS
m/z	relative intensity
36	42
37	47
38	12
39	84
41	51
42	46
43	341
44	38
45	11
47	339
48	157
49	116
50	49
51	10
52	12
53	65
54	130
55	448
56	72
57	214
58	8
59	117
60	3
61	3
63	3
65	38
66	30
67	281
68	113
69	358
70	99
71	83
72	8
73	11
74	275
75	45
77	52
78	24
79	175
80	99
81	208
82	108
83	999
84	15
85	695
86	6
87	205
88	18
89	4
91	90
92	27
93	98
94	52
95	162
96	170
97	234
98	134
102	7
103	6
104	7
105	44
106	38
107	46
108	34
109	82
110	82
111	105
112	31
113	15
114	17
115	40
116	7
117	16
118	10
119	32
120	16
121	37
122	13
123	62
124	39
125	52
126	16
127	14
128	18
129	21
130	6
131	12
133	26
134	17
135	35
136	12
137	35
138	31
139	34
140	4
141	32
142	7
143	13
147	16
148	10
149	17
150	17
151	24
152	28
153	23
154	3
155	4
157	7
161	9
162	3
163	13
165	7
166	15
167	13
169	3
171	6
175	9
177	6
179	8
180	16
181	5
182	4
187	3
189	3
193	3
194	11
195	6
197	3
203	3
207	6
208	8
220	3
221	6
222	12
235	4
236	30
237	3
249	6
250	6
263	5
264	5
276	6
277	10
278	29
279	5
289	4
291	4
292	3
302	4
320	144
321	65
322	10
352	9
