Mass spectrum: BENZONITRILE; EI-MS
Formula: C7H5N
Exact mass: 103.0422
Instrument type: EI-MS
m/z	relative intensity
26	90
27	316
28	95
29	274
31	999
32	20
42	44
43	12
45	575
46	271
47	15
50	3
76	64
103	200
