Mass spectrum: ISOVALERALDEHYDE DIBENZYL ACETAL; EI-MS
Formula: C19H24O2
Exact mass: 284.17763
Instrument type: EI-MS
m/z	relative intensity
29	18
39	24
41	26
51	2
65	75
77	43
79	22
89	1
90	21
91	999
92	219
93	1
105	11
107	69
108	12
133	1
181	43
