Mass spectrum: 2,4,6-TRIMETHYLPYRIDINE; EI-MS
Formula: C8H11N
Exact mass: 121.08915
Instrument type: EI-MS
m/z	relative intensity
27	156
28	68
39	268
40	23
41	66
42	111
51	112
52	11
53	92
63	46
65	45
77	132
78	32
79	257
91	11
93	48
94	23
105	33
106	169
107	36
120	238
121	999
122	87
