Mass spectrum: 4-PENTENENITRILE; EI-MS
Formula: C5H7N
Exact mass: 81.05785
Instrument type: EI-MS
m/z	relative intensity
39	800
40	230
41	999
50	20
51	260
52	260
53	400
54	74
81	630
82	60
