Mass spectrum: (3S,6R)-6-(TERT-BUTYLDIMETHYLSILOXY)-3-METHYLNONEN-8-YNE; EI-MS
Formula: C16H30OSi
Exact mass: 266.20659
Instrument type: EI-MS
m/z	relative intensity
56	56
58	46
75	308
76	1
77	64
92	10
93	25
95	999
96	92
101	16
105	11
115	8
133	256
134	13
149	16
153	4
165	12
169	520
170	26
171	2
183	12
191	39
209	276
210	2
211	15
212	11
227	35
251	5
