Mass spectrum: ETHYLENEGLYCOL DIACETATE; EI-MS
Formula: C6H10O4
Exact mass: 146.05791
Instrument type: EI-MS
m/z	relative intensity
15	63
28	15
29	18
42	33
43	999
44	30
73	45
74	10
86	112
103	18
116	43
