Mass spectrum: N-ISOPROPYLACETAMIDE; EI-MS
Formula: C5H11NO
Exact mass: 101.08406
Instrument type: EI-MS
m/z	relative intensity
15	77
27	35
28	39
30	2
39	24
41	59
42	83
43	24
44	999
45	21
57	20
58	10
60	36
71	64
86	94
101	20
102	24
