Mass spectrum: 1,4-DIMETHOXYBENZENE; EI-MS
Formula: C8H10O2
Exact mass: 138.06808
Instrument type: EI-MS
m/z	relative intensity
50	28
51	39
52	52
53	34
54	35
62	18
63	59
64	66
65	40
67	14
69	16
73	22
74	10
77	45
79	19
80	43
82	10
92	41
95	213
96	15
107	18
108	20
123	999
124	81
138	878
139	80
