Mass spectrum: N-(3-AMINOPROPYL)CYCLOHEXYLAMINE; EI-MS
Formula: C9H20N2
Exact mass: 156.16265
Instrument type: EI-MS
m/z	relative intensity
30	999
41	333
44	439
55	29
56	500
57	344
70	903
98	51
156	30
