Mass spectrum: 3,6-DIMETHOXY-2-(10-PENTADECENYL)PHENOL; EI-MS
Formula: C23H38O3
Exact mass: 362.2821
Instrument type: EI-MS
m/z	relative intensity
39	20
41	96
42	17
43	62
53	16
54	16
55	118
57	14
67	36
69	35
77	21
79	27
81	36
83	13
91	26
94	15
95	22
97	12
107	45
109	22
122	46
123	40
137	141
138	22
139	24
151	15
152	22
153	185
154	37
165	19
166	19
167	726
168	84
180	16
362	999
363	276
364	43
