Mass spectrum: 5-METHYL-2-PROPIONYLFURAN; EI-MS
Formula: C8H10O2
Exact mass: 138.06808
Instrument type: EI-MS
m/z	relative intensity
27	25
29	63
39	10
41	10
43	56
53	275
54	20
57	21
72	17
81	23
95	13
108	11
109	999
110	108
111	11
137	10
138	343
139	28
