Mass spectrum: BIS(1-(4-METHOXYPHENYL)ETHYL) ETHER; EI-MS
Formula: C18H22O3
Exact mass: 286.15689
Instrument type: EI-MS
m/z	relative intensity
39	80
43	93
51	62
63	58
65	158
77	160
78	54
79	79
89	54
91	284
92	58
94	79
103	72
105	102
109	131
119	432
120	67
121	108
134	822
135	999
136	249
137	254
151	52
152	91
178	78
286	45
