Mass spectrum: 7-CHLORO-2,5-DIMETHYL-1,2,3,4-TETRAHYDROPYRIMIDO(1,6-A)INDOLE; EI-MS
Formula: C13H15ClN2
Exact mass: 234.09238
Instrument type: EI-MS
m/z	relative intensity
77	12
115	11
127	13
128	1
129	11
130	21
143	10
154	2
155	13
156	213
164	21
178	2
190	107
191	999
192	121
193	27
233	12
234	369
235	30
236	77
