Mass spectrum: AMINOPYRIN; EI-MS
Formula: C13H17N3O
Exact mass: 231.13716
Instrument type: EI-MS
m/z	relative intensity
232	280
231	999
216	170
123	180
112	200
111	370
97	710
91	70
83	100
82	100
77	130
70	170
67	110
56	920
51	70
42	180
