Mass spectrum: ETHYL IODIDE; EI-MS
Name: IODOETHANE
Formula: C2H5I
Exact mass: 155.94359
Instrument type: EI-MS
m/z	relative intensity
127	141
128	77
141	17
156	999
157	22
