Mass spectrum: ORTHO-TOLUNITRILE; EI-MS
Name: 1-METHYL-2-CYANOBENZENE
Formula: C8H7N
Exact mass: 117.05785
Instrument type: EI-MS
m/z	relative intensity
27	23
37	22
38	31
39	94
50	45
51	51
52	16
58.5	21
61	21
62	40
63	100
64	46
65	21
75	24
76	20
88	25
89	255
90	480
91	52
114	11
115	14
116	544
117	999
118	85
