Mass spectrum: ALPHA-TERPINENE; EI-MS
Name: 1-METHYL-4-(1-METHYLETHYL)-1,3-CYCLOHEXADIENE
Formula: C10H16
Exact mass: 136.1252
Instrument type: EI-MS
m/z	relative intensity
29	23
41	21
43	110
55	27
67	15
77	108
78	14
79	148
80	51
81	19
91	162
92	96
93	783
94	84
105	110
106	30
107	117
108	57
119	23
121	999
122	103
136	750
137	90
