Mass spectrum: 8-METHYLNONANOIC ACID TRIMETHYLSILYL ESTER; EI-MS
Name: TRIMETHYLSILYL 8-METHYLNONANOATE
Formula: C13H28O2Si
Exact mass: 244.18586
Instrument type: EI-MS
m/z	relative intensity
43	265
45	121
47	59
55	11
56	55
58	53
61	51
69	11
71	51
73	999
74	89
75	81
76	61
77	119
81	114
83	6
95	63
97	53
116	48
117	76
118	82
129	312
130	46
131	21
132	229
133	53
145	172
185	5
201	87
229	793
230	144
231	48
