Mass spectrum: NERYL ISOVALERATE; EI-MS
Name: ISOVALERIC ACID CIS-3,7-DIMETHYL-2,6-OCTADIEN-1-YL ESTER
Formula: C15H26O2
Exact mass: 238.19328
Instrument type: EI-MS
m/z	relative intensity
41	150
43	35
57	591
68	546
69	999
80	280
85	309
92	98
93	448
107	70
121	247
123	43
136	181
137	42
