Mass spectrum: BIS(O-FLUOROPHENYL)MERCURY; EI-MS
Formula: C12H8F2Hg
Exact mass: 392.03003
Instrument type: EI-MS
m/z	relative intensity
28	46
32	14
70	16
95	504
96	684
97	40
189	17
190	76
191	10
198	14
199	22
200	38
201	18
202	43
293	120
294	194
295	289
296	178
297	369
298	20
299	77
388	316
389	580
390	822
391	529
392	999
393	126
394	226
395	25
