Mass spectrum: N-ISOBUTYLACETAMIDE; EI-MS
Name: ACETYLAMINOISOBUTANE
Formula: C6H13NO
Exact mass: 115.09971
Instrument type: EI-MS
m/z	relative intensity
30	999
31	28
43	54
45	24
56	33
57	16
58	157
60	522
61	11
72	547
73	127
74	17
100	440
101	28
115	206
116	88
