Mass spectrum: 2-ETHYNYL-1,1,1,2,3,3,3-HEPTAMETHYLTRISILANE; EI-MS
Formula: C9H22Si3
Exact mass: 214.10293
Instrument type: EI-MS
m/z	relative intensity
43	47
45	121
46	11
53	15
55	21
59	19
67	19
69	25
71	10
72	10
73	999
74	68
75	58
81	12
83	106
84	14
85	37
95	10
97	21
99	31
101	114
102	17
111	137
112	22
113	24
115	39
116	663
117	105
118	53
125	64
126	74
127	23
129	20
131	28
139	12
140	172
141	246
142	54
143	21
155	196
156	37
157	21
171	16
183	11
199	326
200	84
201	43
214	247
215	69
216	32
