Mass spectrum: 1,3-DINITROBENZENE; EI-MS
Formula: C6H4N2O4
Exact mass: 168.01711
Instrument type: EI-MS
m/z	relative intensity
40	13
44	47
46	61
49	48
50	999
51	149
52	50
53	25
54	14
55	17
61	32
62	50
63	203
64	238
65	18
73	35
74	218
75	597
76	576
77	54
92	203
93	16
122	132
152	12
168	282
169	24
