Mass spectrum: 3,4-BENZO-2-OXABICYCLO(4.1.0)HEPT-3-EN-5-ONE (7,7-D2); EI-MS
Formula: C10H8O2
Exact mass: 160.05243
Instrument type: EI-MS
m/z	relative intensity
75	90
76	532
77	170
103	70
104	513
105	210
119	10
120	130
121	57
130	2
131	110
132	552
133	538
134	182
135	60
160	95
161	448
162	999
163	133
