Mass spectrum: NONANAL O-2,3,4,5,6-PENTAFLUOROBENZYLOXIME; EI-MS
Formula: C16H20F5NO
Exact mass: 337.14651
Instrument type: EI-MS
m/z	relative intensity
41	273
42	49
43	221
44	17
46	6
51	4
53	16
54	42
55	126
56	42
57	80
58	25
59	3
67	28
68	19
69	95
70	21
71	30
72	10
79	15
80	7
81	34
82	51
83	49
84	16
85	11
86	13
93	16
95	19
96	43
97	27
98	21
99	29
100	8
110	25
111	8
112	7
117	23
119	19
124	9
131	7
137	4
143	3
149	8
150	19
154	4
155	3
161	35
162	4
167	15
168	12
169	4
170	58
171	3
176	10
177	38
178	15
179	3
181	999
182	7
189	4
194	9
195	33
196	10
197	19
198	33
202	13
207	6
208	4
219	8
222	48
223	3
226	3
239	382
240	39
252	17
