Mass spectrum: DI-N-BUTYL ETHER; EI-MS
Formula: C8H18O
Exact mass: 130.13577
Instrument type: EI-MS
m/z	relative intensity
15	31
26	28
27	198
28	8
29	345
30	25
31	39
39	9
40	25
41	279
42	35
43	4
44	21
45	21
55	46
56	14
57	999
58	39
73	34
87	16
101	20
130	35
