Mass spectrum: PARA-ISOPROPENYLPHENYLPENTAMETHYLDISILANE; EI-MS
Formula: C14H24Si2
Exact mass: 248.14165
Instrument type: EI-MS
m/z	relative intensity
51	24
58	26
59	142
60	24
73	527
74	49
75	32
78	41
91	24
105	36
119	38
131	33
135	39
143	26
145	108
159	138
160	362
161	65
174	179
175	999
176	179
177	52
233	51
234	21
248	33
