Mass spectrum: ETHYL (4R*,5R*)-(E)-5-(CARBAMOYL)OXY-4-(TRIETHYLSILYL)OXY-2-HEXENOATE; EI-MS
Formula: C15H29NO5Si
Exact mass: 331.1815
Instrument type: EI-MS
m/z	relative intensity
43	25
74	23
75	25
77	5
84	9
87	39
94	9
100	1
101	10
102	21
103	12
111	5
112	12
115	41
130	13
138	1
142	16
146	999
147	47
148	3
156	12
157	11
161	11
169	1
185	11
187	17
198	37
199	3
203	10
205	31
213	48
214	1
215	22
216	7
217	31
218	1
220	53
221	15
241	95
242	2
243	24
244	228
245	89
246	3
256	26
259	89
260	18
270	6
271	8
302	20
303	5
