Mass spectrum: 2,6-DI-TERT-BUTYL-ALPHA-DIMETHYLAMINO-P-CRESOL; EI-MS
Formula: C17H29NO
Exact mass: 263.22491
Instrument type: EI-MS
m/z	relative intensity
15	38
18	51
27	43
29	110
30	28
39	72
41	242
42	95
43	103
44	286
45	206
46	57
51	33
53	50
55	69
57	135
58	291
65	45
67	32
69	32
77	77
78	24
79	58
80	36
81	23
91	142
93	26
102	50
103	26
105	82
107	31
115	66
116	26
117	45
119	83
121	74
127	21
128	61
129	69
130	26
131	49
133	61
134	48
135	25
141	25
143	52
144	23
145	75
146	20
147	78
148	21
149	26
159	35
160	21
161	282
162	74
163	216
164	61
173	23
175	173
176	82
177	23
187	29
188	23
189	99
190	42
203	352
204	70
205	65
206	111
217	26
218	174
219	999
220	250
221	26
246	23
262	91
263	252
264	56
