Mass spectrum: N-BUTYRONITRILE; EI-MS
Formula: C4H7N
Exact mass: 69.05785
Instrument type: EI-MS
m/z	relative intensity
15	19
26	56
27	261
28	38
29	528
30	14
37	28
38	32
39	86
40	34
41	999
42	37
51	16
52	29
54	11
64	14
66	9
68	11
69	3
