Mass spectrum: 3-BENZYLAMINO-2-METHYL-2-BUTEN-4-OLIDE; EI-MS
Formula: C12H13NO2
Exact mass: 203.09463
Instrument type: EI-MS
m/z	relative intensity
38	3
39	33
41	22
42	4
43	12
44	1
50	6
51	19
52	10
53	11
54	7
55	13
56	3
57	11
59	1
60	8
62	5
63	18
64	6
65	98
66	8
67	5
68	7
69	18
70	4
71	6
72	6
73	9
74	1
75	2
76	2
77	14
78	8
79	4
80	2
81	8
82	5
83	10
84	4
85	4
87	4
88	2
89	23
90	10
91	999
92	97
93	4
94	1
95	4
96	2
97	7
98	3
99	2
100	2
101	2
102	1
103	2
104	11
106	2
107	2
109	2
111	5
112	2
113	2
114	2
115	9
116	4
117	4
118	2
120	2
121	3
123	2
124	2
125	3
126	1
128	2
129	8
130	5
131	3
135	2
136	1
137	2
138	1
140	1
142	2
143	7
144	6
145	2
147	1
148	2
149	1
151	1
152	1
156	6
157	5
158	9
159	2
163	1
164	2
165	2
167	4
169	1
171	2
172	2
174	4
175	1
176	2
177	1
184	2
185	4
186	2
188	2
191	3
193	2
199	2
200	2
201	2
202	7
203	403
204	61
205	6
