Mass spectrum: ETHYL-N-PROPYLAMINE; EI-MS
Formula: C5H13N
Exact mass: 87.1048
Instrument type: EI-MS
m/z	relative intensity
15	25
26	12
27	97
28	101
29	70
30	592
39	32
41	72
42	45
43	62
44	93
56	32
57	11
58	999
59	36
70	14
72	76
86	41
87	148
88	10
