Mass spectrum: 2-ACETYLTHIOPHENE; EI-MS
Formula: C6H6OS
Exact mass: 126.01394
Instrument type: EI-MS
m/z	relative intensity
15	36
26	12
27	13
37	25
38	38
39	325
42	20
43	181
45	114
49	14
50	28
51	17
53	19
57	97
58	37
69	29
81	26
82	30
83	128
84	21
97	11
111	999
112	67
113	36
126	420
127	25
128	15
