Mass spectrum: DIPHENYLMETHANE; EI-MS
Formula: C13H12
Exact mass: 168.0939
Instrument type: EI-MS
m/z	relative intensity
50	20
51	51
62	13
63	42
64	13
65	75
70	19
71	18
75	11
76	23
77	18
82	60
83	103
84	26
89	59
90	34
91	191
92	15
115	38
128	28
139	26
141	23
151	16
152	161
153	143
154	16
163	20
164	27
165	283
166	103
167	860
168	999
169	133
170	11
