Mass spectrum: 2-BUTOXYETHYL ACETATE; EI-MS
Formula: C8H16O3
Exact mass: 160.10994
Instrument type: EI-MS
m/z	relative intensity
29	74
41	126
43	462
44	93
45	73
55	28
56	589
57	999
58	42
61	75
70	26
71	28
72	21
73	26
74	74
75	12
85	225
86	15
87	324
88	144
89	10
100	131
117	16
