Mass spectrum: 1,3,5-PENTANETRICARBOXYLIC ACID TRIMETHYLESTER; EI-MS
Formula: C11H18O6
Exact mass: 246.11034
Instrument type: EI-MS
m/z	relative intensity
42	107
43	190
53	95
54	6
55	642
57	35
58	83
67	35
68	59
69	71
71	285
72	4
78	83
81	202
82	35
84	21
85	845
87	130
88	59
95	35
99	71
100	702
101	47
109	5
111	95
112	47
113	928
114	5
122	250
123	607
126	464
127	57
128	404
141	309
143	83
154	25
155	761
160	166
171	107
173	7
182	71
183	35
186	999
187	39
214	166
215	761
216	47
