Mass spectrum: BUTYRALDEHYDE (2-ETHOXYETHYL)METHYLHYDRAZONE; EI-MS
Formula: C9H20N2O
Exact mass: 172.15756
Instrument type: EI-MS
m/z	relative intensity
27	78
28	50
29	63
30	3
31	47
39	16
41	63
42	10
43	144
44	467
45	59
55	1
56	26
57	17
58	28
59	2
70	44
71	19
72	16
83	2
84	7
85	9
86	14
100	1
113	999
114	85
172	122
173	18
