Mass spectrum: CEDRANE; EI-MS
Name: (3R-(3ALPHA,3ALPHABETA,6ALPHA,7BETA,8AALPHA))-OCTAHYDRO-3,6,8,8-TETRAMETHYL-1H-3A,7-METHANOAZULENE
Formula: C15H26
Exact mass: 206.20345
Instrument type: EI-MS
m/z	relative intensity
27	18
29	18
39	28
41	11
55	81
56	75
67	45
69	15
77	82
79	59
91	132
93	39
105	251
107	64
119	999
120	15
133	77
136	77
147	99
148	5
161	216
162	42
175	13
189	4
206	36
