Mass spectrum: 2-ACETYL-1-TRIDEUTEROMETHYLINDOLE; EI-MS
Formula: C11H11NO
Exact mass: 173.08406
Instrument type: EI-MS
m/z	relative intensity
39	27
43	85
51	12
62	2
63	61
77	11
78	18
79	1
88	31
89	999
90	38
104	1
105	10
114	11
115	26
131	1
132	30
133	65
147	16
160	7
161	999
162	46
174	177
175	11
176	865
177	46
