Mass spectrum: 3-METHYL-2-PYRAZOLINE; EI-MS
Formula: C4H8N2
Exact mass: 84.06875
Instrument type: EI-MS
m/z	relative intensity
26	68
27	219
28	280
29	14
30	33
38	17
39	96
40	4
41	106
42	451
43	55
50	2
51	22
52	16
53	4
54	20
55	178
56	458
57	22
69	6
70	5
81	25
82	29
83	999
84	842
85	51
