Mass spectrum: DIHYDROHALKENDIN; EI-MS
Formula: C13H12O5
Exact mass: 248.06847
Instrument type: EI-MS
m/z	relative intensity
78	70
91	30
106	40
118	20
134	90
162	140
177	70
205	999
206	120
233	160
248	840
249	120
