Mass spectrum: TRIS(PENTAFLUOROPHENYL)-PHOSPHINE; EI-MS
Formula: C18F15P
Exact mass: 531.94981
Instrument type: EI-MS
m/z	relative intensity
69	210
79	115
93	16
98	1
110	33
117	27
129	140
130	0
148	10
168	18
179	10
198	5
217	140
218	10
227	49
241	5
246	17
258	27
260	14
266	0
277	50
278	11
296	170
297	2
315	14
346	15
365	430
366	6
513	52
514	38
532	999
533	2
534	22
