Mass spectrum: 3,5-DIMETHYLISOXAZOLE; EI-MS
Formula: C5H7NO
Exact mass: 97.05276
Instrument type: EI-MS
m/z	relative intensity
26	115
27	286
29	52
30	4
37	36
38	80
39	278
40	9
41	148
42	199
43	725
50	3
51	63
52	88
53	47
54	72
55	297
56	22
62	25
63	5
65	36
66	25
67	25
68	4
81	27
82	999
83	50
97	80
98	52
99	19
