Mass spectrum: ETHYL ACETATE; EI-MS
Formula: C4H8O2
Exact mass: 88.05243
Instrument type: EI-MS
m/z	relative intensity
42	52
43	999
44	14
45	152
60	10
61	153
70	101
73	45
88	54
