Mass spectrum: 7-ETHYLQUINOLINE; EI-MS
Formula: C11H11N
Exact mass: 157.08915
Instrument type: EI-MS
m/z	relative intensity
27	21
29	44
39	36
41	22
50	11
51	10
63	41
75	30
77	30
87	25
89	62
101	31
102	46
115	32
116	83
117	55
128	11
129	129
130	68
142	999
143	154
156	332
157	653
158	74
