Mass spectrum: 3-METHYL-2-BUTANONE; EI-MS
Name: METHYL ISOPROPYL KETONE
Formula: C5H10O
Exact mass: 86.07316
Instrument type: EI-MS
m/z	relative intensity
14	10
15	68
26	12
27	12
29	10
38	14
39	78
40	1
41	179
42	30
43	999
44	2
45	12
71	39
86	170
87	12
