Mass spectrum: ISOBUTYLHYDRAZINE; EI-MS
Formula: C4H12N2
Exact mass: 88.10005
Instrument type: EI-MS
m/z	relative intensity
26	10
27	87
28	167
29	12
30	67
31	107
32	87
38	1
39	77
40	11
41	120
42	3
43	53
44	41
45	999
46	5
53	6
54	11
55	15
56	3
57	30
58	7
59	13
70	1
71	11
73	7
87	6
88	28
89	46
