Mass spectrum: 2,6,6,11-TETRAMETHYLTRICYCLO(5.4.0.0(2,8))UNDEC-10-EN-9-OL; EI-MS
Formula: C15H24O
Exact mass: 220.18272
Instrument type: EI-MS
m/z	relative intensity
43	356
51	43
53	154
55	79
56	26
57	69
58	69
65	8
67	308
68	16
69	846
70	2
71	633
77	431
78	48
79	37
80	128
81	484
82	106
83	6
84	59
85	49
91	505
92	21
93	761
94	357
95	612
96	3
97	101
104	11
105	787
106	18
107	457
108	96
109	999
110	40
111	85
115	79
116	11
117	36
118	266
119	527
120	74
121	36
122	16
123	202
124	96
127	5
128	159
129	16
131	462
132	42
133	457
134	16
135	223
136	21
137	32
138	11
145	340
146	12
149	383
150	32
151	11
159	16
160	20
177	53
187	79
202	12
203	10
220	489
221	50
