Mass spectrum: METHYL 2,4,6-TRIMETHYLPHENYL KETONE; EI-MS
Name: 2,4,6-TRIMETHYLACETOPHENONE
Formula: C11H14O
Exact mass: 162.10447
Instrument type: EI-MS
m/z	relative intensity
27	100
28	115
29	19
32	2
38	10
39	186
40	25
41	16
42	27
43	404
50	39
51	15
52	56
53	90
55	10
58	1
62	18
63	90
64	27
65	16
66	40
67	12
74	17
75	3
76	22
77	297
78	112
79	8
80	17
89	45
90	13
91	45
92	44
93	30
102	42
103	15
104	95
105	55
115	196
116	5
117	173
118	50
119	544
120	6
128	20
129	10
133	22
146	1
147	999
148	108
162	227
163	27
