Mass spectrum: 3-(4-METHOXYPHENYLMETHOXY)PROPANOL; EI-MS
Formula: C11H16O3
Exact mass: 196.10994
Instrument type: EI-MS
m/z	relative intensity
107	26
121	327
122	57
137	999
138	299
139	29
165	19
195	6
196	204
197	61
