Mass spectrum: ALLYL PROPIONATE; EI-MS
Formula: C6H10O2
Exact mass: 114.06808
Instrument type: EI-MS
m/z	relative intensity
15	11
26	39
27	161
28	38
29	412
30	11
31	14
38	15
39	152
40	24
41	325
42	24
55	16
56	19
57	999
58	44
75	18
