Mass spectrum: TROPOLONE; EI-MS
Formula: C7H6O2
Exact mass: 122.03678
Instrument type: EI-MS
m/z	relative intensity
51	89
52	34
53	57
55	70
56	9
61	30
62	13
63	42
64	17
65	173
66	187
67	16
74	14
76	9
77	13
94	283
95	10
122	999
123	57
252	10
