Mass spectrum: N-METHYL CAPROLACTAM; EI-MS
Formula: C7H13NO
Exact mass: 127.09971
Instrument type: EI-MS
m/z	relative intensity
27	100
42	245
43	235
44	999
55	290
56	145
70	190
127	440
