Mass spectrum: BUTYL PARA TOLUATE; EI-MS
Name: PARA TOLUIC ACID BUTYL ESTER
Formula: C12H16O2
Exact mass: 192.11503
Instrument type: EI-MS
m/z	relative intensity
27	70
29	119
39	119
41	132
50	12
51	25
55	23
56	119
63	45
65	224
89	36
90	25
91	502
92	60
93	33
119	999
120	84
136	577
137	294
138	20
192	16
