Mass spectrum: ISOPROPYL 4-OXOPENTANOATE; EI-MS
Name: ISOPROPYL LEVULINATE
Formula: C8H14O3
Exact mass: 158.09429
Instrument type: EI-MS
m/z	relative intensity
15	62
26	16
27	146
29	4
39	72
41	148
42	65
43	999
44	26
45	25
55	69
56	14
57	27
58	14
59	26
61	3
71	86
72	27
73	62
74	25
75	21
98	25
99	696
100	5
101	138
103	14
116	68
117	7
130	17
143	31
