Mass spectrum: 2,4,5-TRIMETHYLTHIAZOLE; EI-MS
Formula: C6H9NS
Exact mass: 127.04557
Instrument type: EI-MS
m/z	relative intensity
26	28
27	109
29	14
37	1
38	23
39	97
40	33
41	9
42	115
43	92
45	206
46	3
47	19
50	36
51	57
52	3
53	102
54	14
57	27
58	11
59	244
60	21
61	13
66	1
68	35
69	59
70	27
71	95
72	52
73	51
78	11
84	1
85	321
86	710
87	57
88	4
112	37
126	93
127	999
128	9
129	53
