Mass spectrum: ISO-BUTANE; EI-MS
Name: 2-METHYL-PROPANE
Formula: C4H10
Exact mass: 58.07825
Instrument type: EI-MS
m/z	relative intensity
14	12
15	69
26	27
27	256
28	33
29	57
37	23
38	41
39	227
40	34
41	419
42	349
43	999
44	33
50	14
51	10
57	33
58	39
59	2
