Mass spectrum: 1,5-DIMETHYL-1-VINYL-4-HEXENYL ACETATE; EI-MS
Formula: C12H20O2
Exact mass: 196.14633
Instrument type: EI-MS
m/z	relative intensity
18	50
27	20
41	30
43	20
55	80
65	20
66	100
67	16
68	10
69	120
70	20
74	1
76	65
77	480
78	110
79	3
80	40
81	15
82	10
83	1
90	25
91	205
92	999
93	13
94	30
95	15
105	20
106	1
107	80
108	20
109	25
110	1
111	40
113	10
118	10
120	32
121	30
137	215
138	35
140	2
150	10
152	10
154	20
196	10
