Mass spectrum: 2-AMINO-9H-PYRIDO(2,3-B)INDOLE; EI-MS
Formula: C11H9N3
Exact mass: 183.07965
Instrument type: EI-MS
m/z	relative intensity
40	30
41	37
42	33
43	118
44	35
45	189
46	68
50	48
51	88
52	51
53	18
54	14
55	18
56	10
57	25
60	43
61	18
62	37
63	71
64	68
65	44
69	16
71	10
74	0
75	58
76	53
77	79
78	133
79	10
85	10
86	17
87	23
88	31
89	23
90	14
91	91
92	125
99	16
100	26
101	68
102	54
103	25
104	13
113	3
114	28
115	25
116	37
117	11
126	13
127	42
128	103
129	108
130	28
131	10
138	13
139	29
140	27
141	23
142	24
143	33
153	14
154	25
155	190
156	255
157	37
165	18
166	24
168	18
180	10
181	27
182	123
183	999
184	138
