Mass spectrum: 2-(3,4-DIMETHOXYPHENYL)ETHYL BETA-(D)-GLUCOPYRANOSIDE; EI-MS
Formula: C16H24O8
Exact mass: 344.14712
Instrument type: EI-MS
m/z	relative intensity
28	27
43	46
45	52
57	8
60	90
61	36
69	37
71	3
73	81
85	51
91	45
105	5
121	29
134	40
135	44
137	4
138	82
149	54
150	102
151	39
152	76
164	887
165	999
193	2
166	179
167	36
182	24
210	8
344	201
345	43
