Mass spectrum: 5,7-DIMETHYL-3',4'-METHYLENEDIOXYFLAVONOL; EI-MS
Name: 3-HYDROXY-5,7-DIMETHYL-2-(3,4-METHYLENEDIOXYPHENYL)-4H-CHROMEN-4-ONE
Formula: C18H14O5
Exact mass: 310.08412
Instrument type: EI-MS
m/z	relative intensity
65	20
77	28
91	41
104	2
126	39
140	76
149	121
224	5
239	23
281	34
282	65
309	11
310	999
311	237
312	23
