Mass spectrum: (Z)-3,7-DIMETHYL-2,6-OCTADIENENITRILE; EI-MS
Name: CIS-GERANYLNITRILE
Formula: C10H15N
Exact mass: 149.12045
Instrument type: EI-MS
m/z	relative intensity
41	310
69	999
70	39
81	8
121	14
134	112
148	29
149	38
