Mass spectrum: 5-METHYL-4-HEXENE-1-YL ACETATE; EI-MS
Formula: C9H16O2
Exact mass: 156.11503
Instrument type: EI-MS
m/z	relative intensity
18	54
43	32
54	22
56	2
68	76
69	21
79	15
81	44
82	52
94	12
95	12
96	999
97	105
