Mass spectrum: CYCLOHEXYL ACETATE; EI-MS
Formula: C8H14O2
Exact mass: 142.09938
Instrument type: EI-MS
m/z	relative intensity
41	32
43	618
44	23
54	154
55	82
56	13
57	55
58	74
59	15
61	94
67	500
68	30
71	34
72	11
81	58
82	999
83	113
99	51
100	58
