Mass spectrum: 1-PHENYLPYRAZOLE; EI-MS
Formula: C9H8N2
Exact mass: 144.06875
Instrument type: EI-MS
m/z	relative intensity
26	15
27	30
28	34
37	1
38	38
39	82
40	19
41	3
50	65
51	265
52	49
58.5	1
62	19
63	67
64	56
65	4
66	18
72	30
74	19
75	2
76	21
77	409
78	43
89	8
90	215
91	59
104	63
115	7
116	71
117	208
118	131
119	1
142	18
143	134
144	999
145	110
