Mass spectrum: ADIPIC ACID DI-2-ETHYLHEXYL ESTER; EI-MS
Formula: C22H42O4
Exact mass: 370.30831
Instrument type: EI-MS
m/z	relative intensity
27	45
28	39
29	135
39	26
41	249
42	52
43	304
44	10
53	12
54	16
55	261
56	121
57	544
58	26
59	26
67	16
68	14
69	389
70	335
71	19
72	14
82	25
83	132
84	81
85	15
87	70
97	13
100	50
101	91
102	33
111	109
112	432
113	206
114	18
128	49
129	999
130	74
131	10
142	20
146	29
147	221
148	13
157	11
160	11
199	21
213	18
241	121
242	19
258	10
259	115
260	18
