Mass spectrum: ALPHA-NAPHTHYLACETIC ACID; EI-MS
Formula: C12H10O2
Exact mass: 186.06808
Instrument type: EI-MS
m/z	relative intensity
39	22
51	20
57.5	54
63	31
69.5	24
70	14
70.5	34
89	2
115	152
116	16
128	12
139	6
140	21
141	999
142	146
143	1
186	410
187	56
