Mass spectrum: 3,4-BENZO-2-OXABICYCLO(4.1.0)HEPT-3-EN-5-ONE; EI-MS
Formula: C10H8O2
Exact mass: 160.05243
Instrument type: EI-MS
m/z	relative intensity
75	75
76	513
77	213
103	190
104	477
105	116
119	30
120	128
121	69
122	23
130	5
131	697
132	203
133	68
134	50
159	51
160	999
161	110
