Mass spectrum: GLYCERYL TRIBUTYRATE; EI-MS
Formula: C15H26O6
Exact mass: 302.17294
Instrument type: EI-MS
m/z	relative intensity
44	50
45	30
54	33
56	47
59	20
60	42
70	22
71	999
72	77
73	32
74	39
87	4
89	64
102	20
131	111
143	3
145	62
201	55
215	89
216	1
229	10
