Mass spectrum: 7-HYDROXYFLAVONE; EI-MS
Name: 7-HYDROXY-2-PHENYL-4H-CHROMEN-4-ONE
Formula: C15H10O3
Exact mass: 238.06299
Instrument type: EI-MS
m/z	relative intensity
32	214
39	94
41	33
43	3
44	23
50	71
51	180
52	15
53	34
57	26
62	34
63	9
64	27
69	183
74	43
75	6
76	146
77	119
79	26
80	15
95	86
102	177
105	280
105.5	3
108	400
109	24
136	543
137	4
149	119
152	76
153	44
181	6
209	49
210	800
211	117
237	19
238	999
239	156
