Mass spectrum: 1,1,4,4-TETRAPHENYLBUTANE; EI-MS
Formula: C28H26
Exact mass: 362.20345
Instrument type: EI-MS
m/z	relative intensity
41	11
42	10
43	55
44	1
51	17
57	11
63	10
65	3
77	41
79	10
86	45
88	7
89	12
91	190
92	21
102	1
103	21
105	22
115	35
117	1
118	10
128	13
141	11
145	2
151	10
152	105
153	17
162	3
164	10
165	168
166	75
167	999
168	163
169	17
178	17
179	2
180	55
181	14
182	14
193	1
195	11
362	88
363	27
