Mass spectrum: FURFURYL BUTYRATE; EI-MS
Formula: C9H12O3
Exact mass: 168.07864
Instrument type: EI-MS
m/z	relative intensity
15	11
26	20
27	230
28	25
29	45
38	21
39	123
40	12
41	122
42	48
43	248
50	21
51	53
52	198
53	211
55	13
69	16
70	15
71	137
80	110
81	999
82	53
95	18
97	47
98	253
99	13
168	125
169	10
