Mass spectrum: DIBUTYL MALONATE; EI-MS
Formula: C11H20O4
Exact mass: 216.13616
Instrument type: EI-MS
m/z	relative intensity
29	261
30	10
31	106
39	106
41	467
42	221
43	172
44	20
45	14
53	11
55	101
56	518
57	770
58	26
60	49
61	19
69	36
71	28
72	17
73	40
83	25
87	365
88	12
105	999
106	31
116	10
143	267
144	19
161	57
