Mass spectrum: PARA-ISOPROPENYLPHENYLDIMETHYLSILANE; EI-MS
Formula: C11H16Si
Exact mass: 176.10213
Instrument type: EI-MS
m/z	relative intensity
43	171
53	41
58	92
98	31
108	51
115	37
119	44
121	64
131	39
133	34
135	74
145	88
159	90
160	35
161	999
162	163
163	51
175	120
176	256
177	47
178	16
