Mass spectrum: NERAL; EI-MS
Name: (Z)-3,7-DIMETHYL-2,6-OCTADIENAL
Formula: C10H16O
Exact mass: 152.12012
Instrument type: EI-MS
m/z	relative intensity
40	14
41	999
42	44
43	5
51	25
52	10
53	75
54	2
55	44
56	28
59	29
65	2
67	55
69	587
70	39
77	2
79	21
80	11
81	34
82	3
83	56
84	136
91	15
94	7
95	23
109	36
123	27
137	3
152	5
