Mass spectrum: META-NITROACETOPHENONE; EI-MS
Formula: C8H7NO3
Exact mass: 165.04259
Instrument type: EI-MS
m/z	relative intensity
39	20
43	277
50	104
51	48
62	12
63	30
64	20
65	40
74	41
75	72
76	218
77	68
89	16
91	62
92	59
104	332
105	23
119	11
120	18
122	22
150	999
151	80
165	102
166	8
