Mass spectrum: 3-PICOLINE; EI-MS
Name: 3-METHYLPYRIDINE
Formula: C6H7N
Exact mass: 93.05785
Instrument type: EI-MS
m/z	relative intensity
25	13
26	17
27	24
37	21
38	52
39	203
40	65
41	18
50	25
51	40
52	18
53	16
54	18
61	19
62	44
63	91
64	40
65	238
66	351
67	95
78	26
91	14
92	285
93	999
94	146
