Mass spectrum: 1,4-DIMETHYLINDOLE; EI-MS
Formula: C10H11N
Exact mass: 145.08915
Instrument type: EI-MS
m/z	relative intensity
27	26
28	10
39	55
42	27
51	70
58.5	30
71.5	110
72.5	105
77	150
78	35
102	81
103	116
115	110
116	35
128	55
130	90
144	981
145	999
146	130
