Mass spectrum: 2-METHYL-1-PROPANOL; EI-MS
Name: ISO-BUTYL ALCOHOL
Formula: C4H10O
Exact mass: 74.07316
Instrument type: EI-MS
m/z	relative intensity
15	33
26	30
27	353
28	5
29	111
31	526
32	15
33	59
37	15
38	29
39	190
40	4
41	655
42	636
43	999
44	3
45	25
53	10
55	30
56	5
57	32
59	38
73	22
74	140
