Mass spectrum: 3-(2-AMINOETHYL)-1,2-DIPHENYLINDOLE; EI-MS
Formula: C22H20N2
Exact mass: 312.16265
Instrument type: EI-MS
m/z	relative intensity
26	18
27	40
29	18
30	4
39	21
40	16
41	33
42	1
43	42
51	27
55	22
57	2
67	11
69	13
77	93
78	1
91	12
102	10
104	149
105	2
115	10
128	13
151	13
152	2
165	24
176	26
177	39
178	10
179	120
180	25
203	11
204	20
205	52
206	31
216	13
217	1
239	12
252	24
253	15
254	3
265	26
266	24
267	50
268	1
278	66
279	35
280	240
281	14
282	999
284	408
285	69
293	1
294	19
295	12
310	24
312	9
313	27
