Mass spectrum: HEXAMETHYLENEGLYCOL BIS(BETA-(3,5-DI-TERT-BUTYL-4-HYDROXYPHENYL)PROPIONATE); EI-MS
Formula: C40H62O6
Exact mass: 638.45464
Instrument type: EI-MS
m/z	relative intensity
29	72
41	238
43	108
55	487
56	24
57	999
58	45
69	48
81	63
83	207
91	23
99	20
101	26
105	24
107	32
119	27
121	31
129	34
131	24
133	30
143	26
145	31
147	182
148	22
149	64
159	25
161	118
163	171
167	21
173	20
175	38
176	40
177	22
185	29
187	73
189	108
201	33
203	420
204	88
205	67
207	26
217	114
218	30
219	952
220	160
221	23
232	60
233	44
245	38
259	184
260	102
261	33
263	40
278	28
297	28
304	255
305	119
312	50
322	129
323	26
360	44
378	157
379	42
421	46
455	47
470	55
476	80
526	75
527	26
532	39
582	39
638	247
639	109
640	25
