Mass spectrum: 2-ETHYL-5-(2-OXOPROPYL)FURAN; EI-MS
Formula: C9H12O2
Exact mass: 152.08373
Instrument type: EI-MS
m/z	relative intensity
14	118
15	607
16	33
17	160
18	646
26	114
27	372
28	407
29	245
32	92
39	316
41	210
42	166
43	999
50	130
51	244
52	220
53	196
55	99
65	100
66	98
79	89
94	120
109	411
