Mass spectrum: HEXAMETHYLETHANE; EI-MS
Name: 2,2,3,3-TETRAMETHYLBUTANE
Formula: C8H18
Exact mass: 114.14085
Instrument type: EI-MS
m/z	relative intensity
28	10
29	26
41	63
43	9
44	5
55	10
56	418
57	999
58	51
99	105
100	11
