Mass spectrum: METHYL (1S,2S,4AS)-O-2BETA-(1ALPHA-ALLYL-5,5-ETHYLENEDIOXY-1,4A-DIMETHYLDECAHYDRONAPHTHALENYL)DITHIOCARBONATE; EI-MS
Formula: C19H30O3S2
Exact mass: 370.16364
Instrument type: EI-MS
m/z	relative intensity
41	143
55	209
56	97
57	2
67	122
69	64
79	56
81	72
86	126
87	56
91	112
93	92
95	135
99	999
100	86
105	55
107	61
112	154
113	77
133	65
135	60
145	65
159	128
201	2
262	190
263	365
264	58
370	23
