Mass spectrum: ALPHA-PICOLINE; EI-MS
Name: 2-METHYLPYRIDINE
Formula: C6H7N
Exact mass: 93.05785
Instrument type: EI-MS
m/z	relative intensity
15	11
26	33
27	38
28	38
37	30
38	57
39	174
40	63
41	32
42	34
46.5	27
49	11
50	68
51	122
52	68
53	45
54	19
61	16
62	21
63	48
64	32
65	137
66	387
67	76
78	165
79	13
91	19
92	185
93	999
94	67
