Mass spectrum: METHYL ANTHRANILATE; EI-MS
Name: 2-AMINOBENZOIC ACID METHYL ESTER
Formula: C8H9NO2
Exact mass: 151.06333
Instrument type: EI-MS
m/z	relative intensity
39	23
64	36
65	192
66	25
90	21
91	87
92	571
93	56
94	40
119	999
120	332
121	19
151	617
152	51
