Mass spectrum: 4-TRIMETHYLSILYLOXYBENZOIC ACID TRIMETHYLSILYL ESTER; EI-MS
Formula: C13H22O3Si2
Exact mass: 282.11075
Instrument type: EI-MS
m/z	relative intensity
43	142
45	407
47	78
73	999
74	102
75	171
76	65
77	14
89	69
91	71
126	124
147	7
193	316
223	451
224	107
267	35
268	85
282	65
