Mass spectrum: METHOXY ACETIC ACID; EI-MS
Formula: C3H6O3
Exact mass: 90.03169
Instrument type: EI-MS
m/z	relative intensity
14	23
15	154
28	14
29	226
30	27
31	109
42	47
43	16
44	105
45	999
46	29
59	11
60	220
