Mass spectrum: 2-METHYL-(6,7)-BENZOCHROMONE; EI-MS
Formula: C14H10O2
Exact mass: 210.06808
Instrument type: EI-MS
m/z	relative intensity
39	50
40	60
44	110
63	60
76	60
91	70
113	60
114	190
115	50
142	280
170	330
171	70
182	60
210	999
212	160
