Mass spectrum: 2-ETHYLBUTYRALDEHYDE; EI-MS
Formula: C6H12O
Exact mass: 100.08882
Instrument type: EI-MS
m/z	relative intensity
27	32
28	16
29	124
39	1
41	144
42	29
43	999
44	3
53	11
54	11
55	89
56	2
57	102
58	29
69	11
70	2
71	250
72	367
73	17
82	3
100	35
