Mass spectrum: CIS-3-PENTENOL; EI-MS
Formula: C5H10O
Exact mass: 86.07316
Instrument type: EI-MS
m/z	relative intensity
15	33
26	85
27	564
28	108
29	674
30	21
31	641
37	24
38	65
39	569
40	99
41	700
42	80
43	123
44	146
45	29
49	13
50	64
51	83
52	27
53	267
54	151
55	999
56	910
57	203
58	34
65	13
66	14
67	228
68	884
69	57
71	16
86	60
