Mass spectrum: 3-FURYL 1,1-DIMETHYL-2-PROPENYL KETONE; EI-MS
Formula: C10H12O2
Exact mass: 164.08373
Instrument type: EI-MS
m/z	relative intensity
32	37
41	33
69	34
95	999
96	58
135	13
164	95
165	11
