Mass spectrum: 3,4-TRIMETHYLENE-2-OXATRICYCLO(4.3.1.0(1,6))DEC-3-EN-5-ONE; EI-MS
Formula: C12H14O2
Exact mass: 190.09938
Instrument type: EI-MS
m/z	relative intensity
26	100
27	370
28	175
29	185
31	60
38	65
39	885
40	205
41	355
42	60
43	85
45	20
50	80
51	280
52	360
53	915
54	120
55	325
56	40
57	60
62	20
63	65
64	30
65	165
66	255
67	120
68	30
69	30
70	20
71	20
77	245
78	120
79	340
80	330
81	225
82	70
83	40
84	15
89	20
91	335
92	85
93	70
94	70
95	70
96	30
97	30
103	30
104	15
105	95
106	85
107	50
108	50
109	140
110	50
111	210
112	20
115	40
116	50
117	55
118	20
119	65
120	30
121	30
122	25
128	45
129	75
130	50
131	30
133	155
134	280
135	135
136	20
141	15
142	30
143	60
144	50
145	50
146	25
147	165
148	55
149	60
159	15
160	15
161	105
162	55
163	10
170	30
172	20
173	65
174	20
175	135
176	25
187	20
188	15
189	60
190	999
191	140
192	20
