Mass spectrum: 5-METHOXY-2,3-DIMETHYLINDOLE; EI-MS
Formula: C11H13NO
Exact mass: 175.09971
Instrument type: EI-MS
m/z	relative intensity
45	30
51	36
52	41
55	4
77	61
78	53
87.5	32
115	3
116	45
130	35
131	53
132	6
146	34
159	31
160	131
174	8
175	999
176	97
