Mass spectrum: METHYL 10-OXOUNDECANOATE; EI-MS
Formula: C12H22O3
Exact mass: 214.15689
Instrument type: EI-MS
m/z	relative intensity
41	329
43	999
55	396
58	37
69	160
74	165
83	178
87	21
97	289
98	98
107	36
111	5
124	160
125	507
139	45
144	3
156	120
157	436
171	22
172	2
183	209
184	31
199	31
214	17
215	31
