Mass spectrum: 2-PHENOXYPROPIONIC ACID METHYL ESTER; EI-MS
Formula: C10H12O3
Exact mass: 180.07864
Instrument type: EI-MS
m/z	relative intensity
38	14
39	113
43	28
50	3
51	132
55	47
59	61
63	2
65	89
66	51
77	386
78	3
91	42
93	136
94	301
103	2
121	999
122	80
180	320
181	28
