Mass spectrum: N-BENZYL-3-METHOXYCARBONYLPYRROLIDINE; EI-MS
Name: METHYL 1-BENZYLPYRROLIDINE-3-CARBOXYLATE
Formula: C13H17NO2
Exact mass: 219.12593
Instrument type: EI-MS
m/z	relative intensity
42	281
44	51
51	32
55	36
59	28
65	130
68	62
73	97
77	31
91	999
92	126
128	536
129	41
130	59
132	66
133	26
142	177
188	109
204	38
215	53
218	116
219	84
220	26
