Mass spectrum: 2-TRIMETHYLSILYLOXY-3-PYRIDINECARBOXYLIC ACID TRIMETHYLSILYL ESTER; EI-MS
Formula: C12H21NO3Si2
Exact mass: 283.106
Instrument type: EI-MS
m/z	relative intensity
44	2
45	37
46	2
53	7
59	2
72	11
73	999
74	166
75	84
76	4
77	2
91	2
92	7
93	2
97	2
98	3
107	2
108	2
109	2
116	15
117	1
118	2
119	2
120	76
121	6
122	5
123	5
124	3
131	5
132	2
133	21
134	4
135	3
136	7
137	1
138	2
141	2
147	108
148	21
149	47
150	13
151	10
152	14
153	2
154	2
160	2
164	2
165	28
166	343
167	71
168	28
169	2
176	58
177	12
178	14
179	3
180	4
181	21
182	9
183	3
184	2
191	2
192	3
193	3
194	116
195	20
196	27
197	4
198	1
208	3
209	2
210	32
211	8
212	3
223	2
224	13
225	5
226	21
227	4
228	2
234	27
238	29
239	14
240	41
241	10
242	5
243	1
247	2
248	8
252	37
253	10
254	7
255	5
256	2
257	1
258	1
263	3
266	14
268	392
269	196
270	104
271	16
272	3
282	12
283	20
284	9
285	3
