Mass spectrum: TRIFLURALIN; EI-MS
Name: 2,6-DINITRO-N,N-DIPROPYL-4-(TRIFLUOROMETHYL)BENZENAMINE
Formula: C13H16F3N3O4
Exact mass: 335.10929
Instrument type: EI-MS
m/z	relative intensity
43	233
57	24
160	13
202	1
206	32
232	14
248	92
260	2
264	610
265	61
290	131
291	2
306	999
307	134
308	16
316	2
318	65
335	130
336	21
