Mass spectrum: 4-ETHYLPYRIDINE; EI-MS
Formula: C7H9N
Exact mass: 107.0735
Instrument type: EI-MS
m/z	relative intensity
27	17
29	20
37	34
38	70
39	280
40	26
41	53
50	36
51	280
52	160
53	38
54	34
62	33
63	65
64	43
65	260
66	48
76	11
77	90
78	82
79	235
80	73
91	17
92	473
93	32
105	19
106	836
107	999
108	80
