Mass spectrum: 1-PHENOXY-2-PROPANONE; EI-MS
Formula: C9H10O2
Exact mass: 150.06808
Instrument type: EI-MS
m/z	relative intensity
42	20
43	732
44	16
50	59
51	227
52	23
54	15
57	11
62	10
63	34
64	16
65	72
66	14
74	16
75	13
76	23
77	999
78	93
79	223
80	15
93	12
94	37
107	738
108	150
109	13
131	36
132	30
150	758
151	78
