Mass spectrum: BUTYRONITRILE; EI-MS
Formula: C4H7N
Exact mass: 69.05785
Instrument type: EI-MS
m/z	relative intensity
14	15
15	40
26	72
27	33
28	100
29	620
30	13
37	3
38	39
39	90
40	42
41	999
42	41
51	11
52	20
54	2
68	10
