Mass spectrum: PARA-ANISIDINE; EI-MS
Name: 4-METHOXYANILINE
Formula: C7H9NO
Exact mass: 123.06841
Instrument type: EI-MS
m/z	relative intensity
42	13
47	18
50	30
51	51
52	171
53	203
54	46
61	49
62	22
63	46
64	36
65	97
66	23
67	11
77	26
78	18
79	35
80	321
81	29
91	10
92	47
95	28
106	12
107	76
108	999
109	86
120	74
122	36
123	764
124	67
