Mass spectrum: 2-AMINOADAMANTANE; EI-MS
Formula: C10H17N
Exact mass: 151.1361
Instrument type: EI-MS
m/z	relative intensity
30	469
31	12
32	110
35	43
36	236
38	89
40	25
41	17
42	47
43	53
44	27
51	3
52	18
53	56
54	60
55	7
56	304
57	23
58	21
65	5
66	58
67	105
69	51
70	9
71	11
77	106
78	110
79	32
80	238
82	68
83	13
91	26
92	485
93	297
94	83
95	2
96	16
103	11
105	113
106	10
107	26
108	179
109	26
119	14
120	22
121	13
122	15
133	2
134	723
135	103
136	14
150	999
151	840
152	83
