Mass spectrum: CYCLOPENTANECARBOXYLIC ACID METHYL ESTER; EI-MS
Formula: C7H12O2
Exact mass: 128.08373
Instrument type: EI-MS
m/z	relative intensity
42	12
53	30
55	145
56	1
65	9
66	18
67	124
68	10
69	430
70	24
85	21
87	999
88	48
95	24
96	21
97	16
98	15
99	9
100	139
101	2
113	15
127	24
128	87
129	18
