Mass spectrum: 2-BUTYLFURAN; EI-MS
Formula: C8H12O
Exact mass: 124.08882
Instrument type: EI-MS
m/z	relative intensity
27	40
29	20
39	30
41	70
43	17
53	209
55	18
66	10
67	39
68	39
69	10
79	10
80	20
81	999
82	278
83	20
94	10
95	50
96	10
124	280
125	20
