Mass spectrum: FLUPHENAZINE; EI-MS
Formula: C22H26F3N3OS
Exact mass: 437.17487
Instrument type: EI-MS
m/z	relative intensity
39	99
41	479
42	990
43	77
44	549
45	289
55	409
56	96
57	509
58	589
69	229
70	97
71	389
72	809
73	189
74	26
77	89
82	159
83	169
84	35
85	119
86	89
88	89
96	19
97	349
98	709
99	299
100	80
111	329
112	89
113	859
114	10
115	79
125	419
126	109
127	11
128	89
139	259
141	259
143	97
153	229
157	539
171	329
196	5
197	49
198	39
203	119
247	7
248	669
249	89
260	39
266	56
267	229
280	999
281	489
282	16
293	79
294	79
306	159
307	15
308	29
336	19
350	39
363	2
364	9
378	29
391	19
393	1
406	379
407	199
419	89
437	419
