Mass spectrum: HEPTANE; EI-MS
Formula: C7H16
Exact mass: 100.1252
Instrument type: EI-MS
m/z	relative intensity
15	16
26	17
27	330
28	132
29	442
39	205
40	24
41	555
42	238
43	999
44	27
51	15
53	22
55	91
56	247
57	463
58	18
70	177
71	390
72	19
85	13
100	90
