Mass spectrum: CYCLOHEXANONE; EI-MS
Formula: C6H10O
Exact mass: 98.07316
Instrument type: EI-MS
m/z	relative intensity
41	352
42	585
43	229
51	15
53	26
54	91
55	999
56	125
58	56
59	20
67	15
68	20
69	290
70	20
71	24
80	45
83	91
97	22
98	306
99	22
