Mass spectrum: 4-OXO-1,6,7,8,9,9A-HEXAHYDRO-4H-PYRIDO(1,2-A)PYRIMIDINE-3-CARBOXYLIC ACID ETHYL ESTER; EI-MS
Formula: C11H16N2O3
Exact mass: 224.11609
Instrument type: EI-MS
m/z	relative intensity
54	100
55	500
68	150
69	15
70	200
82	150
83	950
84	20
95	100
96	900
97	100
114	6
122	400
123	500
124	350
136	6
140	180
141	50
142	150
150	45
151	700
152	70
168	100
169	23
177	550
178	190
179	300
182	10
195	250
196	240
223	900
224	999
225	150
