Mass spectrum: 3-PHENYLPROPYL BUTYRATE; EI-MS
Formula: C13H18O2
Exact mass: 206.13068
Instrument type: EI-MS
m/z	relative intensity
27	91
28	15
29	15
39	72
41	122
42	20
43	242
51	34
52	10
63	16
65	75
71	122
77	56
78	33
79	24
89	16
91	355
92	35
103	35
104	21
105	33
115	25
116	26
117	689
118	999
119	106
