Mass spectrum: 1,2,3,4-TETRAHYDRO-TRANS-2-PHENYL-1-NAPHTHOL; EI-MS
Formula: C16H16O
Exact mass: 224.12012
Instrument type: EI-MS
m/z	relative intensity
91	130
92	67
103	20
104	1
105	7
115	20
119	67
120	63
121	50
128	40
129	13
130	0
131	3
132	7
133	23
134	1
146	30
147	7
191	20
196	1
204	10
205	43
206	999
207	15
208	10
222	8
224	130
225	2
226	8
