Mass spectrum: TETRAMETHYLENEDIAMINE; EI-MS
Formula: C4H12N2
Exact mass: 88.10005
Instrument type: EI-MS
m/z	relative intensity
14	15
15	17
16	10
17	2
18	83
26	12
27	50
28	24
30	999
31	109
32	16
39	3
40	12
41	69
42	80
43	33
44	58
45	93
54	10
56	2
59	86
70	35
71	22
88	20
