Mass spectrum: ACETOHEXAMIDE; EI-MS
Name: 4-ACETYL-N-((CYCLOHEXYLAMINO)CARBONYL)BENZENESULFONAMIDE
Formula: C15H20N2O4S
Exact mass: 324.11438
Instrument type: EI-MS
m/z	relative intensity
28	29
43	81
56	550
57	4
67	48
69	28
70	89
75	2
81	20
82	51
83	32
85	1
91	24
92	19
96	13
97	4
98	136
99	96
104	19
119	5
120	84
121	34
125	80
135	5
136	14
137	18
139	15
141	17
142	14
182	36
183	54
184	26
185	26
186	16
199	24
200	2
210	999
211	103
212	56
225	7
243	135
244	17
265	36
281	4
324	20
