Mass spectrum: 2,4-HEXADIENEDIOIC ACID DIMETHYL ESTER; EI-MS
Formula: C8H10O4
Exact mass: 170.05791
Instrument type: EI-MS
m/z	relative intensity
50	98
51	223
52	176
53	10
54	77
55	96
59	171
68	8
69	25
79	173
80	77
83	4
95	30
107	35
111	999
112	7
123	110
139	255
155	35
170	133
