Mass spectrum: NORBORNYLENE; EI-MS
Name: BICYCLO(2.2.1)HEPT-2-ENE
Formula: C7H10
Exact mass: 94.07825
Instrument type: EI-MS
m/z	relative intensity
66	999
67	64
77	11
79	94
80	11
93	22
94	344
95	28
