Mass spectrum: BORNEOL; EI-MS
Name: ENDO-BORNEOL
Formula: C10H18O
Exact mass: 154.13577
Instrument type: EI-MS
m/z	relative intensity
40	12
41	12
42	29
54	38
67	35
69	43
70	24
71	49
72	27
81	20
82	51
83	47
84	48
92	25
93	66
95	999
96	112
107	12
108	44
109	26
110	368
111	66
121	91
122	13
137	144
139	171
140	21
154	32
