Mass spectrum: 3-METHYLCYCLOHEXENE; EI-MS
Formula: C7H12
Exact mass: 96.0939
Instrument type: EI-MS
m/z	relative intensity
39	22
40	13
41	47
42	1
53	70
54	160
55	24
66	21
67	262
68	35
79	63
80	12
81	999
82	7
95	67
96	400
97	35
