Mass spectrum: M-ACETOXY NITROBENZENE; EI-MS
Formula: C8H7NO4
Exact mass: 181.03751
Instrument type: EI-MS
m/z	relative intensity
15	49
30	22
38	23
39	38
43	999
44	36
63	46
64	26
65	48
93	77
139	68
181	53
