Mass spectrum: CYCLOHEXYL CINNAMATE; EI-MS
Formula: C15H18O2
Exact mass: 230.13068
Instrument type: EI-MS
m/z	relative intensity
27	101
29	29
39	120
41	271
42	25
43	23
50	32
51	135
52	21
55	240
56	13
63	22
65	12
67	213
68	11
74	13
75	18
76	32
77	340
78	28
79	16
81	46
82	134
83	31
91	31
99	24
101	12
102	108
103	455
104	142
105	10
120	18
130	14
131	999
132	110
139	10
146	11
147	285
148	406
149	549
150	50
230	31
