Mass spectrum: 1,5-DIMETHYLBICYCLO(3.2.2)NON-6-EN-2-ONE; EI-MS
Formula: C11H16O
Exact mass: 164.12012
Instrument type: EI-MS
m/z	relative intensity
18	150
28	91
43	82
58	6
67	54
77	92
79	90
81	10
91	116
93	989
94	153
105	15
106	406
107	850
108	999
109	16
120	602
121	144
131	100
146	6
149	80
164	458
165	38
