Mass spectrum: ETHYL 3,5-DIMETHYLBENZOATE; EI-MS
Formula: C11H14O2
Exact mass: 178.09938
Instrument type: EI-MS
m/z	relative intensity
27	40
29	28
39	37
51	3
53	18
63	21
65	20
77	11
78	35
79	86
91	39
103	6
104	31
105	292
106	40
119	1
132	10
133	999
134	141
135	1
150	244
151	22
163	70
177	1
178	422
179	50
