Mass spectrum: METHYL-3,4-DI-O-METHYLXYLOSIDE; EI-MS
Formula: C8H16O5
Exact mass: 192.09977
Instrument type: EI-MS
m/z	relative intensity
41	240
42	80
43	185
44	40
45	360
47	20
53	10
54	5
55	100
56	55
57	100
58	390
59	300
60	20
61	40
68	80
69	165
70	40
71	345
72	60
73	120
74	999
75	680
76	30
83	20
85	50
87	565
88	220
89	30
97	20
99	40
100	85
101	160
102	10
114	20
115	10
128	20
129	20
130	30
131	10
160	10
161	130
162	10
