Mass spectrum: PROPYL CHLOROFORMATE; EI-MS
Formula: C4H7ClO2
Exact mass: 122.01346
Instrument type: EI-MS
m/z	relative intensity
14	24
15	92
16	22
26	100
27	541
29	155
30	38
31	56
35	43
36	41
37	31
38	54
39	240
40	66
41	486
42	838
43	999
44	148
45	15
57	26
59	51
63	256
65	84
78	11
93	68
95	22
