Mass spectrum: DIBUTYL 1-(N-TRIFLUOROACETYLAMINO)PENTYLPHOSPHONATE; EI-MS
Formula: C15H29F3NO4P
Exact mass: 375.17863
Instrument type: EI-MS
m/z	relative intensity
69	51
82	29
83	437
96	1
97	10
99	40
109	28
110	4
111	12
114	36
112	10
123	18
124	11
126	95
136	19
137	3
138	456
139	999
140	77
141	1
150	16
145	20
152	33
155	4
164	14
165	21
166	28
178	1
179	33
180	30
182	205
183	2
189	14
194	121
195	29
206	3
207	112
208	100
211	31
220	4
246	81
263	31
264	182
265	2
302	20
319	38
320	46
332	1
375	9
376	18
