Mass spectrum: 3-METHYLPYRIDINE; EI-MS
Name: 3-PICOLINE
Formula: C6H7N
Exact mass: 93.05785
Instrument type: EI-MS
m/z	relative intensity
26	29
27	36
28	47
37	42
38	108
39	351
40	127
41	30
49	10
50	48
51	63
52	34
53	25
54	19
61	27
62	47
63	108
64	44
65	248
66	386
67	119
78	35
91	10
92	285
93	999
94	72
