Mass spectrum: 3'-BROMO-6-CARBOXYFLAVONOL; EI-MS
Name: 2-(3-BROMOPHENYL)-3-HYDROXY-4-OXO-4H-CHROMENE-6-CARBOXYLIC ACID
Formula: C16H9BrO5
Exact mass: 359.96334
Instrument type: EI-MS
m/z	relative intensity
31	17
32	98
38	31
39	8
41	23
43	24
44	26
45	5
50	91
51	164
52	76
53	6
55	22
57	20
61	14
62	9
63	244
64	50
65	28
69	15
74	65
75	131
76	99
77	28
78	31
79	46
80	23
81	4
82	19
87	15
89	42
90	2
91	98
92	35
100	13
101	7
102	236
103	331
104	61
105	2
108	16
109	17
113	13
119	32
120	41
125	39
131	31
136	30
137	61
138	149
139	26
140	4
147	49
149	102
150	14
152	2
155	13
163	20
164	999
165	30
166	43
167	13
169	32
171	2
177	23
181	29
182	252
183	4
184	236
185	24
190	57
191	71
192	81
193	16
194	13
209	1
211	13
249	17
267	106
268	2
281	16
285	13
301	72
302	13
303	53
304	43
316	22
329	2
331	26
345	115
346	228
347	15
348	228
349	41
360	26
361	2
362	29
