Mass spectrum: (2S)-N-TERT-BUTOXYCARBONYL-2-(4-(1-ETHOXYETHOXY)-1-HYDROXYBUTYL)PYRROLIDINE; EI-MS
Formula: C17H33NO5
Exact mass: 331.23587
Instrument type: EI-MS
m/z	relative intensity
70	73
114	636
142	21
170	999
171	124
184	94
186	11
230	19
332	4
