Mass spectrum: PROPIOPHENONE; EI-MS
Formula: C9H10O
Exact mass: 134.07316
Instrument type: EI-MS
m/z	relative intensity
27	25
29	18
39	10
43	15
50	42
51	105
74	14
75	1
76	14
77	300
78	26
105	999
106	98
107	7
133	6
134	14
135	54
