Mass spectrum: N,N-DIETHYLANILINE; EI-MS
Formula: C10H15N
Exact mass: 149.12045
Instrument type: EI-MS
m/z	relative intensity
27	38
28	21
29	44
39	23
42	18
50	11
51	82
52	11
65	22
77	228
78	34
79	66
91	34
104	74
105	32
106	474
107	34
118	25
119	21
120	44
134	999
135	96
148	28
149	286
150	29
