Mass spectrum: N-ACETYL-GLYCYL-VALYL-GLYCINE METHYLESTER; EI-MS
Formula: C12H21N3O5
Exact mass: 287.14812
Instrument type: EI-MS
m/z	relative intensity
15	41
27	20
28	64
29	3
30	422
31	22
39	16
41	4
43	167
44	27
45	20
55	10
56	66
57	22
58	13
59	1
69	31
70	27
72	999
73	9
82	11
83	18
84	12
85	3
88	26
90	35
98	28
100	8
113	14
114	11
127	16
145	1
155	23
171	83
172	19
199	3
215	10
