Mass spectrum: 7,7'-DIHYDROXY-6,6'-DIMETHOXY-1,1',2,2'-TETRAMETHYL-1,1',2,2',3,3',4,4'-OCTAHYDRO-8,8'-BISISOQUINOLINE; EI-MS
Formula: C24H32N2O4
Exact mass: 412.23621
Instrument type: EI-MS
m/z	relative intensity
36	235
38	82
44	100
72	7
169	60
183	60
191	387
324	10
338	133
340	95
352	73
354	1
367	73
368	108
369	60
382	1
383	73
395	235
396	73
397	999
398	322
399	83
411	83
412	180
