Mass spectrum: 2-INDANONE; EI-MS
Formula: C9H8O
Exact mass: 132.05751
Instrument type: EI-MS
m/z	relative intensity
39	99
43	140
50	78
51	30
52	118
58	25
63	67
76	2
77	153
78	277
102	52
103	34
104	999
105	79
132	505
133	19
