Mass spectrum: BENZO(C)NAPHTHO(2,3-H)BICYCLO(4.4.1)UNDECA-3,8-DIEN-11-ONE; EI-MS
Formula: C23H20O
Exact mass: 312.15142
Instrument type: EI-MS
m/z	relative intensity
105	68
115	74
117	57
128	66
129	78
141	67
142	67
152	89
153	79
154	144
155	247
156	136
157	313
165	142
166	66
167	101
168	66
170	59
178	85
179	88
207	113
312	999
313	241
