Mass spectrum: 2-METHYLTETRAHYDROFURAN; EI-MS
Formula: C5H10O
Exact mass: 86.07316
Instrument type: EI-MS
m/z	relative intensity
27	55
28	38
29	62
39	2
40	43
41	393
42	441
43	51
44	19
45	211
55	47
56	21
57	28
58	19
67	12
70	2
71	999
72	52
85	47
86	21
87	19
