Mass spectrum: ETHYNYL-ESTRADIOL; EI-MS
Name: 19-NORPREGNA-1,3,5(10)-TRIEN-20-YNE-3,17-DIOL
Formula: C20H24O2
Exact mass: 296.17763
Instrument type: EI-MS
m/z	relative intensity
55	12
67	9
68	13
69	12
79	13
81	23
91	13
93	19
94	8
95	19
97	15
105	17
106	5
107	45
108	18
109	8
116	6
117	10
118	5
119	11
120	30
121	42
122	12
123	12
124	95
125	10
131	25
132	19
133	171
134	27
135	12
136	58
137	25
144	26
145	85
146	117
147	48
148	7
149	5
150	10
157	64
158	74
159	163
160	363
161	65
162	9
170	19
171	39
172	121
173	55
174	13
175	5
183	15
184	15
185	64
186	49
187	11
195	12
196	12
197	28
198	23
199	40
200	33
208	11
209	15
210	23
211	54
212	26
213	999
214	172
215	42
223	11
224	14
225	16
226	35
227	14
228	159
229	32
235	8
236	11
237	14
239	30
240	9
249	7
250	20
251	6
253	11
254	6
263	12
268	21
269	6
270	87
271	18
278	14
280	6
281	9
296	402
297	89
298	11
