Mass spectrum: 2'-HYDROXY-5,7-DIMETHYLFLAVANONE; EI-MS
Name: 2-(2-HYDROXYPHENYL)-5,7-DIMETHYLCHROMAN-4-ONE
Formula: C17H16O3
Exact mass: 268.10994
Instrument type: EI-MS
m/z	relative intensity
39	100
41	27
51	84
52	3
53	41
63	46
65	151
77	16
78	27
89	40
91	653
92	14
93	27
103	24
105	34
107	2
119	131
120	400
121	52
122	2
134	28
148	690
149	999
150	12
161	159
162	78
175	64
225	3
249	396
250	788
251	167
267	3
268	633
269	106
