Mass spectrum: (2S,3S)-3-BENZYLOXY-4-PIVALOYLOXY-1,2-BUTANEDIOL; EI-MS
Formula: C16H24O5
Exact mass: 296.16237
Instrument type: EI-MS
m/z	relative intensity
58	18
67	21
68	32
82	3
85	57
97	46
98	60
115	5
121	999
122	822
123	75
136	9
137	153
138	71
147	18
152	10
153	39
205	25
218	14
219	18
