Mass spectrum: 2-METHOXYETHYLAMINE; EI-MS
Formula: C3H9NO
Exact mass: 75.06841
Instrument type: EI-MS
m/z	relative intensity
15	29
27	15
28	74
29	48
30	999
31	52
41	11
42	52
43	15
44	33
45	107
