Mass spectrum: 5-CYANO-1,2,3,4-TETRAHYDRONAPHTHALENE; EI-MS
Name: 5-CYANOTETRALIN
Formula: C11H11N
Exact mass: 157.08915
Instrument type: EI-MS
m/z	relative intensity
27	20
29	39
39	80
41	32
44	90
50	55
51	90
63	96
64	39
75	46
77	88
89	60
102	91
103	45
115	66
116	265
128	38
129	999
130	125
141	11
142	156
157	447
158	21
