Mass spectrum: ETHYL ORTHO TOLUATE; EI-MS
Name: ORTHO TOLUIC ACID ETHYL ESTER
Formula: C10H12O2
Exact mass: 164.08373
Instrument type: EI-MS
m/z	relative intensity
27	42
29	41
39	116
41	32
50	20
51	53
62	20
63	90
64	21
65	337
66	11
77	84
79	104
89	113
90	300
91	845
92	71
105	26
118	777
119	999
120	108
135	190
136	83
149	47
164	263
165	26
