Mass spectrum: PARA METHYL ACETOPHENONE; EI-MS
Formula: C9H10O
Exact mass: 134.07316
Instrument type: EI-MS
m/z	relative intensity
15	17
27	20
38	15
39	120
41	37
43	108
45.5	15
50	36
51	61
62	29
63	80
64	19
65	242
66	15
77	28
89	67
90	31
91	859
92	69
119	999
120	87
134	225
135	22
