Mass spectrum: 2-METHYLQUINOLIN-8-OL; EI-MS
Formula: C10H9NO
Exact mass: 159.06841
Instrument type: EI-MS
m/z	relative intensity
14	133
18	167
27	67
29	8
39	125
40	88
41	50
42	5
43	42
46	67
51	83
52	5
55	67
63	83
64	50
65	8
67	50
77	208
89	133
90	5
95	83
102	67
103	125
104	5
129	50
130	367
131	423
132	7
159	999
160	92
