Mass spectrum: 3,3-DIMETHYL-1-TRIMETHYLSILYL-1-BUTYNE; EI-MS
Formula: C9H18Si
Exact mass: 154.11778
Instrument type: EI-MS
m/z	relative intensity
43	38
45	14
53	18
55	18
61	19
62	12
67	35
69	28
73	123
81	12
83	39
95	11
97	454
98	52
99	25
109	28
123	40
124	22
139	999
140	145
141	47
154	123
155	22
