Mass spectrum: ETHYL ACETYLACETATE; EI-MS
Name: ETHYL 3-OXOBUTANOATE
Formula: C6H10O3
Exact mass: 130.06299
Instrument type: EI-MS
m/z	relative intensity
14	17
15	76
26	28
27	98
28	11
29	201
31	142
39	11
41	33
42	107
43	999
44	36
45	102
46	30
58	28
60	83
61	39
69	127
70	24
73	14
84	148
85	199
86	13
87	30
88	194
102	37
103	11
115	14
130	55
131	65
