Mass spectrum: 2-PENTANONE; EI-MS
Formula: C5H10O
Exact mass: 86.07316
Instrument type: EI-MS
m/z	relative intensity
27	30
41	82
42	16
43	999
44	24
58	150
71	164
72	1
86	322
87	21
