Mass spectrum: ETHYL CHLOROACETATE; EI-MS
Formula: C4H7ClO2
Exact mass: 122.01346
Instrument type: EI-MS
m/z	relative intensity
42	365
43	174
44	133
45	146
49	442
51	161
73	62
77	999
79	313
94	116
95	62
107	71
