Mass spectrum: BUTYLBENZENE; EI-MS
Formula: C10H14
Exact mass: 134.10955
Instrument type: EI-MS
m/z	relative intensity
27	42
28	14
29	13
39	57
41	37
43	21
50	15
51	48
52	13
63	21
65	107
77	50
78	52
79	27
89	15
91	999
92	499
93	35
103	18
105	78
134	220
135	22
