Mass spectrum: 1-PHENYL-1,2-PROPANEDIONE; EI-MS
Formula: C9H8O2
Exact mass: 148.05243
Instrument type: EI-MS
m/z	relative intensity
15	52
27	20
38	13
39	18
42	15
43	184
50	122
51	335
52	15
74	38
75	17
76	26
77	789
78	54
105	999
106	79
148	16
