Mass spectrum: DIMETHYL TRISULFIDE; EI-MS
Formula: C2H6S3
Exact mass: 125.96316
Instrument type: EI-MS
m/z	relative intensity
45	149
46	46
47	194
48	1
61	110
62	8
64	76
78	10
79	391
80	165
81	42
82	1
111	148
113	19
126	999
127	5
128	133
