Mass spectrum: 3-TOLYL ISOCYANATE; EI-MS
Formula: C8H7NO
Exact mass: 133.05276
Instrument type: EI-MS
m/z	relative intensity
26	17
27	57
28	43
37	32
38	57
39	147
41	32
44	100
50	76
51	120
52	91
53	30
62	32
63	77
64	43
65	69
75	31
76	51
77	179
78	249
79	77
80	17
89	35
90	34
91	195
92	15
103	31
104	606
105	226
106	155
107	134
132	367
133	999
134	82
