Mass spectrum: DIETHYLNITROSAMINE; EI-MS
Name: DIETHYLNITROSAMIDE
Formula: C4H10N2O
Exact mass: 102.07931
Instrument type: EI-MS
m/z	relative intensity
14	31
15	124
18	331
26	63
27	359
28	273
29	660
30	83
40	18
41	75
42	878
43	46
44	987
45	44
54	8
55	13
56	498
57	492
70	25
71	50
73	12
85	27
87	38
102	999
103	58
