Mass spectrum: 4-OXO-4H-PYRIDO(1,2-A)PYRIMIDINE-3-PROPIONIC ACID ETHYL ESTER; EI-MS
Formula: C13H14N2O3
Exact mass: 246.10044
Instrument type: EI-MS
m/z	relative intensity
39	29
41	14
51	74
52	3
53	11
55	63
69	19
78	47
79	80
90	20
100.5	10
105	10
117	11
118	24
131	86
143	4
144	123
145	43
146	94
159	83
160	86
171	49
172	999
173	37
174	47
175	14
199	54
200	12
201	214
202	24
246	357
247	5
248	3
