Mass spectrum: ETHYLHEXADECYLDIMETHYLAMMONIUM BROMIDE; EI-MS
Formula: C20H44BrN
Exact mass: 377.26571
Instrument type: EI-MS
m/z	relative intensity
43	19
44	28
58	367
73	999
79	25
80	25
83	65
84	65
96	76
98	83
108	14
114	15
128	17
135	34
140	8
142	15
154	8
168	6
182	4
196	4
212	5
226	5
240	5
254	12
268	65
282	36
283	36
298	43
304	1
306	1
