Mass spectrum: DIETHYL ETHER; EI-MS
Formula: C4H10O
Exact mass: 74.07316
Instrument type: EI-MS
m/z	relative intensity
26	43
27	176
28	63
29	40
30	22
31	999
32	33
41	5
42	21
43	70
44	29
45	38
59	489
60	30
73	38
74	31
75	30
