Mass spectrum: ISOAMYL OCTANOATE; EI-MS
Name: ISOPENTYL OCTANOATE
Formula: C13H26O2
Exact mass: 214.19328
Instrument type: EI-MS
m/z	relative intensity
27	80
29	112
39	50
41	221
42	91
43	415
44	11
45	11
53	11
55	238
56	28
57	228
60	37
61	11
67	11
69	44
70	999
71	276
72	12
73	37
83	14
84	14
87	14
101	22
115	17
127	192
128	14
144	16
145	73
171	12
