Mass spectrum: 2,2-DIMETHYL-5-TRIMETHYLSILYL-3,4-BENZO-1-OXA-2-SILACYCLOPENT-3-ENE; EI-MS
Formula: C12H20OSi2
Exact mass: 236.10527
Instrument type: EI-MS
m/z	relative intensity
43	52
45	75
73	723
74	64
75	37
88	37
105	41
133	55
145	57
148	241
149	37
163	999
164	157
165	54
193	320
194	64
221	229
222	51
236	354
237	88
