Mass spectrum: ETHYL 4-AMINOBENZOATE; EI-MS
Formula: C9H11NO2
Exact mass: 165.07898
Instrument type: EI-MS
m/z	relative intensity
65	62
66	7
91	2
92	142
93	32
108	7
119	4
120	832
121	100
122	6
137	133
138	9
150	15
165	999
