Mass spectrum: DELTA-GUAIENE; EI-MS
Formula: C15H24
Exact mass: 204.1878
Instrument type: EI-MS
m/z	relative intensity
26	10
27	158
29	207
37	1
38	8
39	253
40	56
41	64
42	45
43	155
50	15
51	1
52	41
53	270
54	32
55	47
56	23
57	33
58	5
59	1
63	25
64	17
65	146
66	1
67	341
68	100
69	177
70	2
71	10
72	8
73	5
74	1
75	21
76	11
77	360
78	10
79	640
80	145
81	582
82	8
83	28
84	8
85	8
87	0
88	8
89	20
90	12
91	55
92	120
93	971
94	260
95	5
96	71
97	20
102	10
103	4
104	27
105	565
106	233
107	999
108	915
109	315
110	30
111	0
115	46
116	23
117	66
118	0
119	327
120	130
121	357
122	12
123	116
124	13
125	8
127	0
128	23
129	21
130	12
131	1
132	17
133	311
134	138
135	47
136	96
137	10
141	5
142	1
143	6
144	5
145	30
146	2
147	335
148	297
149	82
150	1
159	11
160	8
161	188
162	6
163	12
175	41
176	13
188	1
189	388
190	57
191	5
202	1
204	257
205	45
206	5
