Mass spectrum: PARA-ETHOXYPHENOL; EI-MS
Formula: C8H10O2
Exact mass: 138.06808
Instrument type: EI-MS
m/z	relative intensity
28	18
29	50
43	45
51	2
53	86
54	40
55	34
56	3
63	21
64	14
65	33
66	6
79	40
81	147
82	77
93	2
94	61
110	999
111	74
121	2
138	470
139	40
