Mass spectrum: PROPIONIC ACID BUTYL ESTER; EI-MS
Formula: C7H14O2
Exact mass: 130.09938
Instrument type: EI-MS
m/z	relative intensity
26	16
27	113
28	77
29	519
30	14
31	39
39	31
41	214
42	19
43	46
55	72
56	355
57	999
58	33
71	30
73	15
74	22
75	231
87	59
