Mass spectrum: 1-(TETRAHYDRO-2-FURANYL)-5-FLUOROURACIL; EI-MS
Formula: C8H9FN2O3
Exact mass: 200.05972
Instrument type: EI-MS
m/z	relative intensity
39	90
40	30
41	210
42	1
43	400
44	80
60	70
61	0
62	40
69	50
70	100
71	999
72	140
87	110
88	50
98	0
99	60
100	30
114	40
115	0
127	60
130	70
131	40
170	0
172	20
200	220
201	60
