Mass spectrum: O-CRESOL; EI-MS
Name: 2-METHYLPHENOL
Formula: C7H8O
Exact mass: 108.05751
Instrument type: EI-MS
m/z	relative intensity
26	14
27	62
29	15
31	46
38	26
39	97
40	17
45	28
50	40
51	80
52	40
53	71
53.5	18
54	38
55	17
63	35
65	22
66	14
77	180
78	43
79	212
80	79
89	85
90	195
91	57
107	674
108	999
109	89
