Mass spectrum: 2,3-DIMETHYLINDOLE; EI-MS
Formula: C10H11N
Exact mass: 145.08915
Instrument type: EI-MS
m/z	relative intensity
26	17
27	57
29	40
30	9
31	10
36	10
38	10
39	5
40	17
41	61
42	40
43	10
50	17
51	44
52	20
53	2
54	14
55	51
56	25
57	4
58.5	29
60	17
64	14
65	6
67	20
68	14
69	27
70	2
70.5	15
71	24
71.5	74
72	4
72.5	79
73	20
74	10
75	2
76	25
77	111
78	29
79	1
81	19
82	15
83	19
84	1
85	12
89	17
90	14
91	3
92	10
95	14
96	10
97	2
98	15
100	10
101	25
102	5
103	57
104	17
105	10
115	7
116	30
117	34
118	10
127	1
128	46
129	24
130	343
131	4
141	14
142	40
143	165
144	999
145	894
146	100
