Mass spectrum: DICHLORODIFLUOROMETHANE; EI-MS
Formula: CCl2F2
Exact mass: 119.93451
Instrument type: EI-MS
m/z	relative intensity
31	163
35	220
37	67
47	9
49	22
50	246
66	68
68	2
85	999
87	309
101	76
103	43
