Mass spectrum: DIMETHYL ADIPATE; EI-MS
Formula: C8H14O4
Exact mass: 174.08921
Instrument type: EI-MS
m/z	relative intensity
46	85
53	67
54	621
55	85
56	38
57	27
58	777
59	3
68	38
69	83
71	67
72	8
73	333
74	457
75	20
81	2
82	115
83	336
84	33
87	12
88	36
97	92
99	24
100	4
101	538
102	38
110	32
111	55
112	41
113	41
114	712
115	25
129	20
142	434
143	999
144	9
175	696
176	55
