Mass spectrum: META XYLENE; EI-MS
Formula: C8H10
Exact mass: 106.07825
Instrument type: EI-MS
m/z	relative intensity
27	22
38	11
39	84
41	15
50	28
51	73
52	26
53	19
62	15
63	42
65	59
77	108
78	54
79	79
89	17
91	999
92	73
102	10
103	63
104	19
105	206
106	445
107	35
