Mass spectrum: DIMETHYLHYDRAZONE ISOBUTYRALDEHYDE; EI-MS
Name: ISOBUTYRALDEHYDE DIMETHYLHYDRAZONE
Formula: C6H14N2
Exact mass: 114.1157
Instrument type: EI-MS
m/z	relative intensity
27	133
28	229
29	76
30	5
39	97
40	27
41	157
42	34
43	999
44	952
45	370
46	8
52	8
53	14
54	19
55	4
56	157
57	27
58	289
59	6
68	17
69	15
70	64
71	7
72	94
73	6
83	19
85	5
86	16
97	8
99	422
100	3
113	21
114	495
115	58
