Mass spectrum: PHENYLTHIOMETHYL METHYL ETHER; EI-MS
Formula: C8H10OS
Exact mass: 154.04524
Instrument type: EI-MS
m/z	relative intensity
45	999
46	25
50	20
51	47
65	62
66	12
69	27
77	37
78	26
79	10
91	21
109	68
110	18
123	43
124	50
154	254
155	25
156	13
