Mass spectrum: TRIDECANAL; EI-MS
Formula: C13H26O
Exact mass: 198.19837
Instrument type: EI-MS
m/z	relative intensity
39	208
41	999
42	225
43	842
44	318
45	109
53	67
54	154
55	663
56	280
57	821
58	59
66	74
67	325
68	333
69	365
70	273
71	301
72	67
79	37
80	28
81	311
82	484
83	243
84	98
85	108
95	202
96	265
97	126
98	52
99	36
109	87
110	92
111	61
112	27
123	61
124	73
125	30
154	42
