Mass spectrum: 2,3-DICHLOROPHENYL ACETATE; EI-MS
Formula: C8H6Cl2O2
Exact mass: 203.97448
Instrument type: EI-MS
m/z	relative intensity
38	22
39	34
42	44
43	99
44	37
49	17
50	17
51	1
53	12
60	11
61	53
62	9
63	256
64	26
65	12
72	7
73	108
74	53
75	53
83	3
84	17
85	20
87	13
91	1
96	13
97	55
98	99
99	7
100	35
101	14
107	52
109	6
110	11
111	14
126	262
127	3
128	102
133	143
134	12
135	10
137	14
145	25
147	14
161	2
162	999
163	129
164	766
165	8
166	182
167	12
204	413
205	6
206	286
207	36
208	57
