Mass spectrum: 1,3,5-TRI-TERT-BUTYLBENZENE; EI-MS
Formula: C18H30
Exact mass: 246.23475
Instrument type: EI-MS
m/z	relative intensity
40	47
55	16
57	479
58	24
91	20
94	43
100	15
108	67
109	12
115	12
117	11
128	13
129	13
131	11
159	13
175	21
203	12
215	23
231	999
232	198
233	20
246	170
247	37
