Mass spectrum: 2-HYDROXY-4-N-OCTYLOXY-BENZOPHENONE; EI-MS
Formula: C21H26O3
Exact mass: 326.18819
Instrument type: EI-MS
m/z	relative intensity
27	64
29	221
39	37
41	314
42	30
43	336
51	30
53	34
55	142
57	161
69	83
71	58
77	181
81	35
105	397
106	28
107	29
108	30
128	25
136	49
137	396
138	33
141	25
145	43
185	23
186	38
197	45
212	99
213	999
214	609
215	106
324	37
325	182
326	521
327	114
