Mass spectrum: ISOPROPYL ISOBUTYRATE; EI-MS
Formula: C7H14O2
Exact mass: 130.09938
Instrument type: EI-MS
m/z	relative intensity
15	20
27	107
28	18
31	10
39	48
41	158
42	85
43	999
44	35
45	35
59	54
71	313
72	15
73	17
88	20
89	134
115	35
130	6
