Mass spectrum: 4-METHYL-2-PENTANOL; EI-MS
Formula: C6H14O
Exact mass: 102.10447
Instrument type: EI-MS
m/z	relative intensity
15	20
19	14
27	75
29	51
31	18
39	60
41	148
42	48
43	221
44	66
45	999
46	22
55	18
56	44
57	48
69	143
84	31
87	46
