Mass spectrum: ETHYL PYRIDINE-2-TRANS-ACRYLATE; EI-MS
Formula: C10H11NO2
Exact mass: 177.07898
Instrument type: EI-MS
m/z	relative intensity
51	125
52	40
77	65
78	27
79	165
104	221
105	365
106	4
131	42
132	999
133	286
134	3
148	115
176	25
177	334
178	40
