Mass spectrum: ORTHO-METHOXYTOLUENE; EI-MS
Formula: C8H10O
Exact mass: 122.07316
Instrument type: EI-MS
m/z	relative intensity
39	13
53	21
65	38
77	199
78	44
79	169
80	13
89	16
90	53
91	240
92	104
93	22
107	446
108	36
121	125
122	999
123	95
