Mass spectrum: 2-(2,2-DIMETHYL-4-OXOPENTYL)BENZOTHIAZOLE; EI-MS
Formula: C14H17NOS
Exact mass: 247.10308
Instrument type: EI-MS
m/z	relative intensity
39	58
40	32
41	68
42	12
43	701
44	39
45	93
51	18
53	16
55	47
56	15
57	35
58	25
61	14
63	30
65	34
69	69
71	15
77	31
81	13
82	24
83	37
85	11
97	12
104	33
108	80
109	48
116	11
117	11
121	24
136	18
148	95
149	666
150	86
151	39
162	15
173	24
174	57
175	20
177	13
188	24
189	145
190	999
191	165
192	65
232	79
233	13
247	192
248	34
249	13
