Mass spectrum: OLEYL ACETATE; EI-MS
Name: CIS-9-OCTADECENYL ACETATE
Formula: C20H38O2
Exact mass: 310.28718
Instrument type: EI-MS
m/z	relative intensity
15	38
27	112
28	28
29	290
31	13
39	90
40	22
41	749
42	143
43	928
44	30
53	73
54	452
55	999
56	254
57	347
58	16
61	212
65	17
66	64
67	649
68	472
69	622
70	172
71	116
73	30
77	20
79	72
80	71
81	575
82	913
83	506
84	105
85	55
91	20
93	28
94	36
95	472
96	717
97	325
98	61
99	14
105	11
107	12
108	20
109	304
110	330
111	134
112	34
116	10
121	13
122	16
123	153
124	202
125	63
126	24
137	92
138	121
139	29
140	17
151	39
152	65
153	17
154	12
165	23
166	44
167	15
168	15
179	16
180	28
193	16
194	31
196	15
208	19
222	58
223	12
224	22
236	13
250	191
251	40
310	5
