Mass spectrum: 3-METHYL-6-(1-METHYLETHYL)-2-CYCLOGEXEN-1-OL; EI-MS
Name: (+)CIS-PIPERITOL
Formula: C10H18O
Exact mass: 154.13577
Instrument type: EI-MS
m/z	relative intensity
51	10
52	42
53	17
54	53
55	86
56	27
57	33
59	12
63	14
65	54
66	13
67	62
68	14
69	97
70	17
71	122
77	267
78	45
79	157
80	57
81	67
82	13
83	259
84	999
85	64
91	278
92	144
93	920
94	120
95	37
96	11
97	52
105	41
106	10
107	35
108	12
111	105
112	78
119	35
121	205
122	21
136	240
137	30
139	315
140	34
154	115
155	12
