Mass spectrum: METHYL (4S)-4-METHYL-3-OXOHEXANOATE; EI-MS
Formula: C8H14O3
Exact mass: 158.09429
Instrument type: EI-MS
m/z	relative intensity
31	103
32	65
41	55
43	5
56	148
57	577
58	17
59	2
69	173
70	24
75	231
76	2
83	17
84	193
85	462
86	5
98	999
99	59
101	538
102	4
111	83
116	34
126	145
127	3
130	808
131	17
143	55
158	42
159	79
