Mass spectrum: 1,2-BIS(TRIMETHYLSILYL)ETHENE; EI-MS
Formula: C8H20Si2
Exact mass: 172.11035
Instrument type: EI-MS
m/z	relative intensity
43	35
45	86
58	14
59	36
71	17
73	999
74	90
75	40
83	47
84	15
98	36
99	173
100	21
157	288
158	53
159	24
172	223
173	42
174	19
