Mass spectrum: TRANS-2-METHYL-2-BUTENEDIOIC ACID DIMETHYLESTER; EI-MS
Formula: C7H10O4
Exact mass: 158.05791
Instrument type: EI-MS
m/z	relative intensity
42	21
44	25
53	87
55	3
59	567
67	196
68	410
69	30
71	10
98	334
99	327
126	999
127	516
129	32
