Mass spectrum: BUTYRIC ACID ISOPENTYL ESTER; EI-MS
Formula: C9H18O2
Exact mass: 158.13068
Instrument type: EI-MS
m/z	relative intensity
29	14
41	35
42	95
43	456
44	18
45	13
55	257
56	15
57	12
60	22
69	46
70	999
71	731
72	33
73	14
85	18
87	25
88	31
89	145
101	37
115	48
