Mass spectrum: ISOTHIPENDYL; EI-MS
Name: 10-(2-DIMETHYLAMINO-2-METHYLETHYL)-10H-PYRIDO(3,2-B)(1,4)BENZOTHIAZINE
Formula: C16H19N3S
Exact mass: 285.12997
Instrument type: EI-MS
m/z	relative intensity
56	22
57	11
70	22
71	21
72	999
73	47
86	35
168	19
181	14
199	16
200	55
214	2
285	12
