Mass spectrum: BIS(TERT-BUTYLDIMETHYLSILYL) ETHER; EI-MS
Formula: C12H30OSi2
Exact mass: 246.18352
Instrument type: EI-MS
m/z	relative intensity
42	20
45	20
57	15
59	36
66	24
73	147
74	13
75	13
117	42
119	10
131	40
133	52
147	999
148	158
149	79
189	270
190	52
191	23
231	12
246	8
