Mass spectrum: CINNAMYL PROPIONATE; EI-MS
Name: 3-PHENYLALLYL PROPIONATE
Formula: C12H14O2
Exact mass: 190.09938
Instrument type: EI-MS
m/z	relative intensity
26	14
27	95
28	17
29	335
39	60
50	20
51	71
52	13
55	16
57	999
58	28
62	10
63	35
65	25
75	12
76	13
77	94
78	40
79	25
89	22
91	107
92	56
102	24
103	50
104	13
105	89
115	360
116	186
117	259
118	22
131	13
133	137
134	99
190	111
191	13
