Mass spectrum: ETHYL 2-AMINO-3-CYANO-4,8-BIS(METHOXYMETHYL)AZULENE-1-CARBOXYLATE; EI-MS
Formula: C18H20N2O4
Exact mass: 328.14231
Instrument type: EI-MS
m/z	relative intensity
45	260
74	115
127	70
139	4
140	50
141	40
142	30
151	7
152	85
153	130
154	45
164	6
165	35
166	140
167	80
168	9
169	75
170	30
179	230
180	14
181	150
182	120
183	65
191	5
192	110
193	130
194	90
195	31
196	160
197	60
198	35
205	4
207	145
208	280
209	230
210	6
211	140
212	100
219	60
220	5
221	200
222	335
223	180
224	19
225	215
226	40
235	250
236	23
237	430
238	160
239	225
240	5
250	690
251	290
252	940
253	25
254	45
255	155
256	40
267	999
268	140
269	65
281	35
282	48
283	240
284	70
296	100
297	9
298	55
328	420
329	170
