Mass spectrum: 4-CHLORO-3,5-DIMETHYLISOXAZOLE; EI-MS
Formula: C5H6ClNO
Exact mass: 131.01379
Instrument type: EI-MS
m/z	relative intensity
26	68
27	145
29	29
30	1
36	20
37	28
38	52
39	13
40	56
41	65
42	224
43	999
45	13
47	55
48	20
49	3
50	24
51	51
52	58
53	2
54	222
55	57
60	15
61	7
62	240
63	67
64	80
65	3
66	13
67	10
68	19
74	1
75	15
76	13
86	15
87	1
88	203
89	340
90	95
91	14
96	17
101	11
102	104
104	3
116	127
118	47
130	40
131	38
132	42
133	158
