Mass spectrum: 1-MONOOLEIN; EI-MS
Name: GLYCERYL-1-OLEATE
Formula: C21H40O4
Exact mass: 356.29266
Instrument type: EI-MS
m/z	relative intensity
29	31
31	20
41	28
43	68
44	24
45	39
54	28
55	136
56	54
57	142
58	12
59	16
61	31
67	152
68	104
69	186
70	81
71	55
73	34
74	144
75	101
79	35
80	55
81	284
82	249
83	237
84	278
85	54
87	36
91	32
93	64
94	73
95	296
96	316
97	287
98	824
99	81
100	17
101	29
103	14
105	16
107	47
108	86
109	210
110	244
111	183
112	319
113	46
114	22
115	11
116	66
117	27
118	17
119	41
120	22
121	83
122	55
123	174
124	136
125	106
126	76
127	35
128	13
129	128
130	16
131	15
133	66
134	170
135	82
136	39
137	243
138	129
139	73
140	30
141	23
143	31
147	66
148	45
149	49
150	42
151	193
152	168
153	51
154	32
155	28
157	13
161	25
162	22
163	25
164	23
165	123
166	115
167	32
168	22
169	34
171	21
172	15
175	15
176	18
177	16
178	14
179	61
180	90
181	29
182	23
183	34
185	43
186	12
191	14
192	16
193	47
194	42
195	19
196	18
197	11
199	18
206	12
207	64
208	52
209	36
210	17
211	44
213	11
220	37
221	101
222	58
223	19
224	10
225	12
227	12
228	11
229	19
235	52
236	143
237	56
238	29
239	54
240	11
241	15
242	15
245	11
246	31
247	37
248	11
249	19
250	27
251	12
253	12
256	14
257	24
262	48
263	36
264	999
265	454
266	76
267	29
270	18
271	15
282	15
283	15
285	19
292	16
297	15
299	22
307	14
310	14
311	22
313	24
325	75
326	21
327	11
337	11
338	87
339	131
340	32
341	14
356	42
357	9
