Mass spectrum: 6,8-DIMETHYL-2'-METHOXYFLAVANONE; EI-MS
Name: 2-(2-METHOXYPHENYL)-6,8-DIMETHYLCHROMAN-4-ONE
Formula: C18H18O3
Exact mass: 282.12559
Instrument type: EI-MS
m/z	relative intensity
32	42
39	43
41	21
51	4
63	24
65	116
77	77
78	2
89	27
91	552
92	60
103	3
105	38
108	27
119	328
120	51
121	95
134	365
135	31
141	2
147	27
148	999
149	237
174	3
175	116
250	43
251	266
252	4
267	23
281	95
282	817
283	158
