Mass spectrum: 19-METHYLEICOSANOIC ACID TRIMETHYLSILYL ESTER; EI-MS
Name: TRIMETHYLSILYL 19-METHYLEICOSANOATE
Formula: C24H50O2Si
Exact mass: 398.35801
Instrument type: EI-MS
m/z	relative intensity
43	440
55	263
56	65
57	21
67	68
69	165
71	68
73	999
74	82
75	701
77	59
81	8
83	106
95	73
97	76
98	6
117	917
118	78
129	357
131	35
133	79
145	346
201	68
383	48
384	139
