Mass spectrum: DIMETHYL SULFOXIDE; EI-MS
Name: METHYL SULFOXIDE
Formula: C2H6OS
Exact mass: 78.01394
Instrument type: EI-MS
m/z	relative intensity
13	25
14	88
15	338
26	10
27	55
28	23
29	93
31	64
32	36
33	42
34	45
35	58
44	35
45	472
46	137
47	111
48	101
49	16
58	13
59	10
61	170
62	68
63	999
64	27
65	45
78	791
79	108
80	43
