Mass spectrum: 1-PHENYLBICYCLO(3.2.2)NONA-3,6,8-TRIEN-2-ONE; EI-MS
Formula: C15H12O
Exact mass: 208.08882
Instrument type: EI-MS
m/z	relative intensity
131	633
132	52
155	22
165	11
166	42
167	48
168	17
179	65
180	904
181	122
183	20
190	1
191	20
192	20
207	303
208	999
209	191
