Mass spectrum: 2-(2-(2-NITROPHENYL)-TRANS-VINYL)PYRIDINE; EI-MS
Formula: C13H10N2O2
Exact mass: 226.07423
Instrument type: EI-MS
m/z	relative intensity
62	24
63	82
65	84
75	5
76	98
77	190
78	297
79	20
80	21
84	74
87	14
88	1
89	90
90	33
91	80
92	31
93	30
97	10
98	10
99	1
101	35
102	49
103	15
104	4
105	66
106	20
108	16
114	12
115	29
119	422
120	59
121	1
125	12
126	30
127	68
128	4
129	12
130	10
139	41
140	3
141	29
142	10
149	10
150	3
151	69
152	148
153	52
154	6
155	23
156	112
165	11
166	7
167	197
168	44
169	23
177	3
178	128
179	165
180	999
181	26
182	35
192	11
193	14
194	3
195	17
196	11
197	56
198	1
206	94
207	10
209	26
223	3
224	26
225	103
226	143
227	30
