Mass spectrum: PARA-CYANOBENZOIC ACID; EI-MS
Formula: C8H5NO2
Exact mass: 147.03203
Instrument type: EI-MS
m/z	relative intensity
27	22
28	46
37	18
38	20
39	29
45	26
50	145
51	124
52	27
63	20
64	14
65	26
74	36
75	170
76	148
77	12
101	14
102	519
103	52
119	30
120	36
130	999
131	82
147	553
148	44
