Mass spectrum: ETHYL ETHOXYACETATE; EI-MS
Formula: C6H12O3
Exact mass: 132.07864
Instrument type: EI-MS
m/z	relative intensity
15	23
26	31
27	240
28	73
29	570
30	22
31	917
32	12
41	34
42	126
43	81
44	26
45	141
58	17
59	999
60	242
61	196
70	70
73	16
88	449
89	32
103	28
