Mass spectrum: GERANYL VALERATE; EI-MS
Name: 3,7-DIMETHYL-2,6-OCTADIENYL PENTANOATE
Formula: C15H26O2
Exact mass: 238.19328
Instrument type: EI-MS
m/z	relative intensity
27	63
28	17
29	140
39	77
40	24
41	507
42	27
43	32
53	86
55	70
57	312
58	12
65	12
66	11
67	112
68	551
69	999
70	55
77	16
79	26
80	168
81	84
82	11
84	14
85	412
86	19
91	15
92	83
93	377
94	72
95	21
107	62
108	18
121	199
122	17
123	25
136	170
137	26
154	15
169	10
