Mass spectrum: 5-(2-PROPENYL)-1,3-BENZODIOXOLE; EI-MS
Name: SAFROLE
Formula: C10H10O2
Exact mass: 162.06808
Instrument type: EI-MS
m/z	relative intensity
51	71
52	201
53	47
54	27
62	23
63	60
64	15
65	33
66	14
67	15
74	11
75	14
76	37
77	235
78	117
79	54
80	21
81	21
89	12
91	38
92	12
102	33
103	165
104	270
105	78
106	11
121	11
131	320
132	145
133	22
134	12
135	270
136	25
161	248
162	999
163	109
164	9
