Mass spectrum: 3,7-DIMETHYL-2Z,6-OCTADIENOIC ACID; EI-MS
Formula: C10H16O2
Exact mass: 168.11503
Instrument type: EI-MS
m/z	relative intensity
27	54
28	32
29	32
39	9
40	22
41	473
42	29
43	4
45	18
51	22
53	57
54	2
55	35
56	14
65	22
67	7
68	36
69	999
70	57
71	1
77	31
79	35
81	42
82	5
83	21
85	16
91	35
93	4
95	12
100	155
107	41
108	4
109	95
111	20
122	27
123	9
124	30
125	73
126	13
153	1
168	67
