Mass spectrum: 7-(3-METHYL-2-BUTENYLOXY)COUMARIN; EI-MS
Formula: C14H14O3
Exact mass: 230.09429
Instrument type: EI-MS
m/z	relative intensity
38	48
39	271
41	689
42	8
44	21
50	65
51	137
52	50
53	302
54	24
55	20
62	28
63	75
64	28
65	61
66	23
67	431
68	337
69	625
70	34
77	87
78	91
79	21
89	39
105	106
106	32
133	35
134	551
135	45
155	30
161	21
162	999
163	107
164	23
175	27
213	36
230	53
