Mass spectrum: 2-(2-(4-METHOXYPHENYL)-TRANS-VINYL)PYRIDINE; EI-MS
Formula: C14H13NO
Exact mass: 211.09971
Instrument type: EI-MS
m/z	relative intensity
50	13
62	10
77	10
78	1
79	10
89	14
90	12
132	1
140	10
141	13
166	22
167	16
168	55
178	11
180	11
210	999
211	418
212	60
