Mass spectrum: 3-ACETOXY-4'-METHOXY-6,8-DIMETHYLFLAVONE; EI-MS
Name: 3-ACETOXY-2-(4-METHOXYPHENYL)-6,8-DIMETHYL-4H-CHROMEN-4-ONE
Formula: C20H18O5
Exact mass: 338.11542
Instrument type: EI-MS
m/z	relative intensity
43	24
65	22
77	56
91	4
135	34
148	46
149	53
225	5
253	26
267	35
268	21
281	7
295	156
296	999
297	210
