Mass spectrum: (3R)-4-(TERT-BUTYLTHIO)-3-ETHOXYCARBONYLAMINO-2-BUTANONE; EI-MS
Formula: C11H21NO3S
Exact mass: 247.12421
Instrument type: EI-MS
m/z	relative intensity
57	104
76	28
90	11
101	4
102	160
103	176
104	57
107	3
108	11
115	39
145	30
146	3
148	94
149	69
150	88
157	1
158	999
159	66
160	25
174	2
204	965
205	94
206	20
247	1
248	13
