Mass spectrum: (3R)-4-(TERT-BUTYLTHIO)-3-TOSYLAMINO-2-BUTANONE; EI-MS
Formula: C15H23NO3S2
Exact mass: 329.11193
Instrument type: EI-MS
m/z	relative intensity
56	17
57	46
72	60
74	8
102	96
103	53
104	17
157	3
158	33
230	999
231	129
232	6
274	17
286	852
287	166
288	22
289	30
329	36
