Mass spectrum: 2-AMINOETHANOL; EI-MS
Formula: C2H7NO
Exact mass: 61.05276
Instrument type: EI-MS
m/z	relative intensity
14	12
16	10
17	16
18	66
26	12
27	48
28	20
29	110
30	999
31	92
40	1
41	32
42	100
43	42
44	4
60	15
61	90
62	87
