Mass spectrum: 5,7-DIMETHYL-3',4'-METHYLENEDIOXYFLAVANONE; EI-MS
Name: 5,7-DIMETHYL-2-(3,4-METHYLENEDIOXYPHENYL)CHROMAN-4-ONE
Formula: C18H16O4
Exact mass: 296.10486
Instrument type: EI-MS
m/z	relative intensity
39	26
51	23
63	35
65	3
77	27
89	100
90	22
91	15
119	31
120	41
122	20
135	56
136	56
147	269
148	999
149	22
161	58
295	32
296	527
297	93
