Mass spectrum: TETRACHLOROMETHANE; EI-MS
Name: CARBON TETRACHLORIDE
Formula: CCl4
Exact mass: 151.87541
Instrument type: EI-MS
m/z	relative intensity
35	189
37	62
47	243
49	9
82	281
84	179
86	26
117	999
119	928
121	301
123	31
