Mass spectrum: 3,7-DIMETHYL-2,6-OCTADIENAL(TRANS); EI-MS
Name: GERANIAL
Formula: C10H16O
Exact mass: 152.12012
Instrument type: EI-MS
m/z	relative intensity
27	140
28	133
29	94
39	219
40	30
41	873
42	33
43	39
51	27
52	10
53	90
54	19
55	53
56	26
59	34
65	18
67	66
68	22
69	999
70	50
77	21
79	23
83	69
84	246
91	21
93	12
94	125
95	38
109	62
110	12
119	16
123	42
137	38
152	64
