Mass spectrum: 3-METHYLCYCLOHEXYL ACETATE; EI-MS
Formula: C9H16O2
Exact mass: 156.11503
Instrument type: EI-MS
m/z	relative intensity
43	243
54	66
55	103
56	1
58	42
61	36
67	88
68	15
69	28
71	53
81	799
82	6
95	66
96	999
97	135
112	1
113	30
114	20
