Mass spectrum: ISOSAFROLE; EI-MS
Formula: C10H10O2
Exact mass: 162.06808
Instrument type: EI-MS
m/z	relative intensity
65	10
77	53
78	70
79	2
91	39
93	10
102	11
103	14
104	210
105	44
107	10
119	2
131	191
132	81
133	18
135	9
149	11
150	11
159	10
161	18
162	999
163	117
164	17
