Mass spectrum: ISO-LONGIFOLENE; EI-MS
Formula: C15H24
Exact mass: 204.1878
Instrument type: EI-MS
m/z	relative intensity
38	17
39	417
40	65
41	75
42	51
43	162
44	5
50	2
51	110
52	48
53	211
54	3
55	257
56	41
57	30
58	1
62	8
63	46
64	28
65	14
66	36
67	142
68	17
69	2
70	16
71	23
72	13
73	0
74	5
75	10
76	12
77	25
78	73
79	206
80	43
81	12
82	26
83	33
84	5
85	1
87	5
89	17
90	8
91	40
92	82
93	221
94	98
95	13
96	22
97	10
98	2
101	1
102	15
103	48
104	35
105	43
106	98
107	211
108	72
109	7
110	12
111	6
112	4
115	1
116	45
117	103
118	32
119	38
120	117
121	130
122	47
123	3
124	5
126	5
127	25
128	8
129	70
130	37
131	110
132	4
133	417
134	100
135	91
136	4
137	15
138	2
139	5
140	0
141	21
142	21
143	40
144	3
145	145
146	37
147	171
148	43
149	82
150	11
151	4
152	1
153	5
155	8
156	5
157	0
158	12
159	158
160	57
161	999
162	145
163	20
164	6
173	2
174	10
175	615
176	105
177	1
183	6
185	8
187	121
188	2
189	310
190	50
191	5
192	0
198	2
200	5
201	5
202	1
203	15
204	316
205	53
218	8
