Mass spectrum: 10-UNDECENOIC ACID; EI-MS
Formula: C11H20O2
Exact mass: 184.14633
Instrument type: EI-MS
m/z	relative intensity
26	14
27	244
28	52
29	286
31	22
39	277
40	36
41	799
42	157
43	219
45	138
51	13
53	86
54	160
55	999
56	196
57	77
58	17
59	51
60	262
61	23
65	11
66	12
67	146
68	240
69	445
70	114
71	39
73	242
74	23
79	23
80	24
81	128
82	263
83	322
84	213
85	25
86	10
87	55
93	11
94	24
95	71
96	225
97	135
98	102
99	23
100	75
101	52
102	10
109	28
110	55
111	30
112	15
113	20
114	64
115	14
119	12
122	46
123	52
124	124
125	32
127	17
137	32
138	18
148	17
166	30
