Mass spectrum: 9,10-DIBROMOANTHRACENE; EI-MS
Formula: C14H8Br2
Exact mass: 333.89928
Instrument type: EI-MS
m/z	relative intensity
43	61
44	120
62	138
63	97
74	171
75	215
86	105
87	211
88	516
89	58
98	132
111	72
149	95
150	175
168	158
174	188
175	249
176	999
177	164
334	477
336	793
337	175
338	422
339	82
