Mass spectrum: 2-(3,4-DIMETHOXYPHENYL)ETHYL ALPHA-(L)-RHAMNOPYRANOSYL(1.RAR.3)-4-O-(DI-O-METHYLCAFFEOYL)-BETA-(D)-GLUCOPYRANOSIDE; EI-MS
Name: ACTEOSIDE TETRAMETHYL ETHER
Formula: C33H44O15
Exact mass: 680.26802
Instrument type: EI-MS
m/z	relative intensity
18	43
27	28
28	160
29	4
31	38
32	38
39	24
41	4
42	24
43	76
44	24
45	4
53	19
55	47
56	24
57	7
58	28
59	28
60	52
61	2
69	47
71	104
73	66
75	3
77	28
79	24
81	24
82	1
83	24
84	19
85	123
86	1
87	38
90	14
91	38
94	1
95	24
97	28
99	38
103	4
105	28
107	33
108	14
109	2
110	14
113	14
117	19
118	1
119	19
120	14
121	28
123	2
126	14
127	19
128	24
129	6
133	24
134	24
135	47
137	3
138	66
145	28
147	57
148	1
149	33
150	61
151	321
152	6
161	61
163	28
164	999
165	83
166	179
167	38
168	24
169	3
177	14
178	33
179	24
180	2
181	19
182	90
183	66
184	1
191	396
192	66
193	57
195	2
207	14
208	170
209	47
210	4
344	38
370	24
372	38
386	1
490	90
491	24
516	14
534	9
535	24
680	38
681	19
