Mass spectrum: PROPIOPHENONE; EI-MS
Name: 1-PHENYL-1-PROPANONE
Formula: C9H10O
Exact mass: 134.07316
Instrument type: EI-MS
m/z	relative intensity
50	39
51	139
52	11
74	11
76	17
77	454
78	37
105	999
106	80
134	111
135	11
