Mass spectrum: ACETIC ACID 3-METHOXY-3-METHYLBUTYL ESTER; EI-MS
Formula: C8H16O3
Exact mass: 160.10994
Instrument type: EI-MS
m/z	relative intensity
41	31
43	91
45	16
55	50
68	19
69	149
70	23
71	11
73	999
74	48
85	339
86	29
