Mass spectrum: GAMMA-HEPTALACTONE; EI-MS
Formula: C7H12O2
Exact mass: 128.08373
Instrument type: EI-MS
m/z	relative intensity
15	15
26	28
27	200
28	92
29	282
39	79
40	12
41	109
42	62
43	76
44	26
53	14
55	69
56	139
57	63
58	10
69	17
71	34
72	10
73	10
84	19
85	999
86	41
100	31
110	21
