Mass spectrum: ALPHA-(4-DIMETHYLAMINOPHENYL)-OMEGA-(9-PHENANTHRYL)HEPTANE; EI-MS
Name: 1-(4-DIMETHYLAMINOPHENYL)-7-(9-PHENANTHRYL)HEPTANE
Formula: C29H33N
Exact mass: 395.2613
Instrument type: EI-MS
m/z	relative intensity
118	4
120	16
133	6
134	999
135	105
136	6
146	3
147	14
148	11
160	7
161	6
191	22
192	6
198	10
203	4
204	4
381	7
382	3
393	5
394	18
395	617
396	204
397	34
398	4
