Mass spectrum: DODECANAL O-2,3,4,5,6-PENTAFLUOROBENZYLOXIME; EI-MS
Formula: C19H26F5NO
Exact mass: 379.19346
Instrument type: EI-MS
m/z	relative intensity
41	303
42	56
43	283
44	20
46	16
51	8
53	22
54	40
55	165
56	55
57	125
58	30
59	10
67	35
68	25
69	89
70	31
71	43
72	16
79	18
80	10
81	38
82	49
83	59
84	17
85	18
86	17
93	18
95	28
96	50
97	59
98	29
99	33
100	13
109	15
110	32
111	26
112	12
117	21
118	20
124	19
131	13
138	14
149	12
150	20
161	30
167	22
168	12
176	13
177	39
178	15
179	8
181	999
182	87
194	12
195	29
196	16
197	19
198	116
199	15
202	18
207	73
208	8
219	12
222	57
226	12
239	461
240	49
252	29
