Mass spectrum: ETHYL 4-NITROBENZOATE; EI-MS
Formula: C9H9NO4
Exact mass: 195.05316
Instrument type: EI-MS
m/z	relative intensity
26	43
27	242
29	345
30	20
38	30
39	72
43	39
44	1
45	260
46	35
50	353
51	9
52	10
53	34
62	18
63	7
64	71
65	267
66	19
74	13
75	270
76	484
77	76
81	4
91	10
92	225
93	40
103	12
104	420
105	42
109	70
120	12
121	158
122	28
134	76
135	12
136	10
137	60
148	27
149	4
150	999
151	174
152	18
167	37
168	48
178	229
179	43
194	1
195	305
196	45
