Mass spectrum: ETHYL BROMIDE; EI-MS
Name: BROMOETHANE
Formula: C2H5Br
Exact mass: 107.95746
Instrument type: EI-MS
m/z	relative intensity
25	21
26	191
27	753
28	281
29	999
30	20
77	30
79	22
81	21
93	41
95	29
105	61
108	913
109	19
110	867
111	10
