Mass spectrum: O-ACETOXY NITROBENZENE; EI-MS
Formula: C8H7NO4
Exact mass: 181.03751
Instrument type: EI-MS
m/z	relative intensity
15	68
30	36
38	33
39	40
42	23
43	999
44	30
50	20
51	22
63	68
64	47
65	47
81	30
93	21
109	25
139	373
140	27
181	30
