Mass spectrum: 1-BENZYL-2-METHYLPROPYL ACETATE; EI-MS
Formula: C13H18O2
Exact mass: 206.13068
Instrument type: EI-MS
m/z	relative intensity
15	18
27	26
39	36
41	41
43	999
44	23
51	16
55	11
63	12
65	57
73	12
77	19
89	11
91	218
92	59
103	15
115	30
131	189
132	16
146	194
147	21
