Mass spectrum: 1,2-DIMETHOXYETHANE; EI-MS
Formula: C4H10O2
Exact mass: 90.06808
Instrument type: EI-MS
m/z	relative intensity
15	32
28	19
29	55
31	4
43	21
45	999
46	21
58	8
59	29
60	141
90	107
