Mass spectrum: METHYL ISOBUTYRATE; EI-MS
Formula: C5H10O2
Exact mass: 102.06808
Instrument type: EI-MS
m/z	relative intensity
15	157
26	30
27	250
28	39
29	57
31	22
33	13
38	18
39	167
40	26
41	369
42	151
43	999
44	31
45	22
55	65
59	267
61	44
70	10
71	354
72	14
74	29
87	190
102	121
