Mass spectrum: 2-HYDROXYPHENAZINE; EI-MS
Formula: C12H8N2O
Exact mass: 196.06366
Instrument type: EI-MS
m/z	relative intensity
74	150
75	250
76	380
77	350
78	160
88	90
89	130
90	110
91	70
92	100
98	350
99	30
100	10
102	200
103	70
114	130
115	100
117	70
118	50
119	80
120	25
129	100
130	15
140	290
141	170
142	150
143	20
167	250
168	680
169	150
195	100
196	999
197	135
198	25
199	10
