Mass spectrum: AMYL PROPIONATE; EI-MS
Name: PENTYL PROPIONATE
Formula: C8H16O2
Exact mass: 144.11503
Instrument type: EI-MS
m/z	relative intensity
26	20
27	230
28	81
29	533
30	15
31	28
39	82
40	15
41	188
42	248
43	285
44	12
55	204
56	28
57	999
58	31
69	60
70	415
71	58
72	16
74	25
75	390
76	12
85	17
87	69
115	11
