Mass spectrum: 2,2,4,5-TETRAMETHYL-5-HEXEN-3-ONE; EI-MS
Formula: C10H18O
Exact mass: 154.13577
Instrument type: EI-MS
m/z	relative intensity
15	10
27	59
29	151
39	97
41	367
42	41
43	28
53	29
55	60
56	23
57	999
58	68
67	14
69	126
70	92
85	257
86	15
97	11
154	36
