Mass spectrum: 2,4-DIMETHYLTHIAZOLE; EI-MS
Formula: C5H7NS
Exact mass: 113.02992
Instrument type: EI-MS
m/z	relative intensity
27	10
39	441
41	10
42	310
44	10
45	240
46	88
47	10
59	60
68	99
69	10
70	80
71	920
72	999
73	228
74	209
75	22
112	39
113	709
114	209
115	208
116	11
