Mass spectrum: BENZYL ACETATE; EI-MS
Formula: C9H10O2
Exact mass: 150.06808
Instrument type: EI-MS
m/z	relative intensity
42	35
43	477
44	32
45	13
50	44
51	112
52	25
53	10
62	14
63	49
64	16
65	116
74	12
77	155
78	41
79	232
80	23
89	108
90	431
91	500
92	40
105	57
106	32
107	171
108	999
109	81
150	248
151	27
