Mass spectrum: (S)-N-TERT-BUTOXYCARBONYL-2-(1-PYRROLIN-2-YL)PYRROLIDINE; EI-MS
Formula: C13H22N2O2
Exact mass: 238.16813
Instrument type: EI-MS
m/z	relative intensity
57	279
70	101
83	48
96	84
114	46
120	80
121	999
122	38
182	38
