Mass spectrum: PHENYL ACETATE; EI-MS
Formula: C8H8O2
Exact mass: 136.05243
Instrument type: EI-MS
m/z	relative intensity
42	20
43	260
44	17
50	18
51	24
55	14
63	23
65	61
66	78
77	21
93	13
94	999
95	67
136	109
