Mass spectrum: PHENYL BENZOATE; EI-MS
Formula: C13H10O2
Exact mass: 198.06808
Instrument type: EI-MS
m/z	relative intensity
27	17
28	17
38	17
39	90
50	56
51	186
52	10
63	17
65	46
74	12
75	13
76	24
77	483
78	35
105	999
106	79
198	89
199	13
