Mass spectrum: 1-AMINO-11-CYANO-UNDECANE; EI-MS
Formula: C12H24N2
Exact mass: 196.19395
Instrument type: EI-MS
m/z	relative intensity
18	40
27	34
29	54
30	999
31	36
39	31
41	93
42	44
43	29
44	34
45	131
54	26
55	56
56	24
59	42
69	26
72	27
83	43
86	72
87	20
97	23
100	28
156	67
