Mass spectrum: ETHYLMETHYLSILANE; EI-MS
Formula: C3H10Si
Exact mass: 74.05518
Instrument type: EI-MS
m/z	relative intensity
26	10
27	47
28	95
29	9
30	17
31	118
39	8
41	2
42	86
43	312
44	805
45	999
46	72
47	30
53	42
54	1
55	42
56	26
57	48
58	14
59	232
60	21
70	21
71	3
72	551
73	434
74	172
