Mass spectrum: 2-BENZOYL-1-METHYLINDOLE; EI-MS
Name: 1-METHYL-2-INDOLYL PHENYL KETONE
Formula: C16H13NO
Exact mass: 235.09971
Instrument type: EI-MS
m/z	relative intensity
41	25
43	26
51	117
55	2
57	19
63	61
69	27
75	1
76	24
77	618
78	31
88	1
89	100
90	33
91	55
101	1
102	32
103	33
105	230
115	2
126	62
129	23
130	147
131	1
158	167
165	19
178	11
204	3
205	11
206	80
207	11
216	1
217	33
218	90
219	12
220	1
232	16
233	73
234	999
235	96
236	142
