Mass spectrum: 1-CHLORO-3-METHYLENE-1,4-BUTANEDIOL DIACETATE; EI-MS
Formula: C9H13ClO4
Exact mass: 220.05024
Instrument type: EI-MS
m/z	relative intensity
26	26
27	73
29	15
32	18
39	46
40	20
41	48
42	27
43	999
44	47
51	17
53	43
54	35
55	41
57	12
61	32
65	50
67	26
69	20
78	18
81	20
82	103
83	125
84	64
85	23
87	53
88	28
89	13
101	21
102	32
103	40
113	17
118	90
119	16
120	22
125	153
129	122
143	45
160	20
161	15
185	280
