Mass spectrum: 10-PHENYLDECAN-1-OL; EI-MS
Name: 10-PHENYL-1-DECANOL
Formula: C16H26O
Exact mass: 234.19837
Instrument type: EI-MS
m/z	relative intensity
39	35
41	146
42	16
43	17
51	17
53	14
54	16
55	168
56	19
57	29
63	9
65	71
66	7
67	29
68	17
69	118
70	10
77	44
78	46
79	45
80	10
81	24
82	17
83	54
89	13
90	10
91	951
92	575
93	56
94	36
95	15
96	9
97	7
103	28
104	999
105	225
106	26
107	10
115	16
116	8
117	255
118	96
119	27
120	8
130	5
131	87
132	37
133	34
134	13
135	6
145	27
146	10
147	7
159	16
160	9
173	7
174	5
188	7
199	6
216	55
217	11
234	206
235	41
236	5
