Mass spectrum: 8-METHYLTHIOOCTANENITRILE; EI-MS
Formula: C9H17NS
Exact mass: 171.10817
Instrument type: EI-MS
m/z	relative intensity
41	115
48	105
55	555
61	999
69	215
75	165
82	175
83	36
84	265
94	270
95	185
96	99
97	335
110	145
124	320
125	3
126	20
156	205
171	540
172	10
173	30
