Mass spectrum: 4-PICOLYL ACETATE; EI-MS
Formula: C8H9NO2
Exact mass: 151.06333
Instrument type: EI-MS
m/z	relative intensity
38	40
39	200
43	999
50	8
51	140
52	80
53	90
63	1
64	60
65	130
78	40
79	1
80	240
91	60
92	150
108	2
109	880
110	70
151	270
152	30
