Mass spectrum: PARA-NONYLPHENOL; EI-MS
Formula: C15H24O
Exact mass: 220.18272
Instrument type: EI-MS
m/z	relative intensity
27	28
29	75
39	34
41	152
43	83
55	88
57	37
65	23
77	66
91	55
94	10
95	45
103	18
105	13
107	512
108	31
115	14
119	28
120	18
121	493
122	48
133	18
134	43
135	999
136	101
147	6
149	344
150	35
163	94
164	5
177	50
191	55
206	9
220	73
221	4
