Mass spectrum: ETHYLMETHYLSILANE; EI-MS
Formula: C3H10Si
Exact mass: 74.05518
Instrument type: EI-MS
m/z	relative intensity
28	33
29	8
31	79
43	12
44	999
45	995
46	76
47	3
56	18
57	36
58	181
59	25
60	21
70	24
71	26
72	75
73	568
74	221
75	32
