Mass spectrum: 1,2-DIBROMOETHANE; EI-MS
Formula: C2H4Br2
Exact mass: 185.86798
Instrument type: EI-MS
m/z	relative intensity
79	28
80	27
81	28
82	26
93	39
95	36
105	26
106	19
107	999
108	35
109	937
110	20
186	17
188	31
190	16
