Mass spectrum: BUTYRIC ACID; EI-MS
Formula: C4H8O2
Exact mass: 88.05243
Instrument type: EI-MS
m/z	relative intensity
14	11
15	26
26	40
27	326
28	59
29	142
31	17
37	18
38	30
39	170
40	22
41	244
42	217
43	165
45	195
55	58
60	999
61	20
69	14
71	22
73	303
74	12
87	12
88	20
