Mass spectrum: 1,1,3-TRIMETHYLINDAN; EI-MS
Formula: C12H16
Exact mass: 160.1252
Instrument type: EI-MS
m/z	relative intensity
27	10
39	24
41	20
51	27
57.5	8
64	33
65	30
77	33
78	10
91	92
103	23
115	74
117	106
128	79
129	67
144	25
145	999
146	119
160	187
161	23
