Mass spectrum: 1-ACETYL-3-(4-NITROPHENYL)-4-(2-PYRIDYL)-2-PYRAZOLINE; EI-MS
Formula: C16H14N4O3
Exact mass: 310.10659
Instrument type: EI-MS
m/z	relative intensity
78	113
79	999
92	20
119	8
144	22
190	130
191	35
232	4
267	24
310	69
