Mass spectrum: DIBUTYL ADIPATE; EI-MS
Formula: C14H26O4
Exact mass: 258.18311
Instrument type: EI-MS
m/z	relative intensity
43	78
54	197
55	254
56	212
58	45
59	46
60	25
73	6
83	108
84	46
87	205
91	2
100	125
101	172
102	29
111	30
112	49
128	22
129	599
130	2
143	230
144	21
156	202
157	3
158	39
171	38
184	39
185	999
186	110
203	78
258	82
259	49
