Mass spectrum: BIS(2-CHLOROETHYL) ETHER; EI-MS
Formula: C4H8Cl2O
Exact mass: 141.99522
Instrument type: EI-MS
m/z	relative intensity
43	16
45	11
49	32
62	20
63	785
64	24
65	247
93	999
94	38
95	323
96	12
142	9
