Mass spectrum: DIBUTYL ETHER; EI-MS
Formula: C8H18O
Exact mass: 130.13577
Instrument type: EI-MS
m/z	relative intensity
15	11
27	110
28	52
29	268
30	11
31	26
39	58
41	313
42	22
43	32
44	13
45	26
55	48
56	165
57	999
58	46
73	16
87	168
88	11
101	28
130	28
