Mass spectrum: NONANEDIOIC ACID BIS(TRIMETHYLSILYL) ESTER; EI-MS
Name: DI(TRIMETHYLSILYL) NONANEDIOATE
Formula: C15H32O4Si2
Exact mass: 332.18391
Instrument type: EI-MS
m/z	relative intensity
45	110
55	282
67	110
73	999
75	661
81	93
83	159
97	13
111	125
117	289
129	259
147	32
152	270
153	112
171	114
183	10
201	438
204	236
217	189
273	7
317	208
318	82
