Mass spectrum: 9-TRIPTYCENYL METHACRYLATE; EI-MS
Formula: C24H18O2
Exact mass: 338.13068
Instrument type: EI-MS
m/z	relative intensity
39	13
41	123
59	10
69	84
113	13
125	16
126	18
164	11
165	23
215	11
226	22
237	21
239	164
240	62
241	34
250	33
251	68
252	158
253	51
254	13
269	999
270	224
271	26
338	300
339	83
340	14
