Mass spectrum: ACENAPHTHYLENE; EI-MS
Formula: C12H8
Exact mass: 152.0626
Instrument type: EI-MS
m/z	relative intensity
43	26
49	16
50	49
51	35
61	29
62	97
63	106
73	27
74	95
75	226
76	209
77	18
85	11
86	23
87	19
97	12
98	32
99	24
100	15
101	13
102	12
124	11
125	34
126	37
141	12
149	106
150	257
151	784
152	999
153	172
154	34
