Mass spectrum: ETHYL METHYL ETHER; EI-MS
Formula: C3H8O
Exact mass: 60.05751
Instrument type: EI-MS
m/z	relative intensity
15	207
26	88
27	205
28	8
29	490
30	34
31	199
32	2
41	8
42	16
43	70
44	1
45	999
46	16
59	109
60	259
