Mass spectrum: 9-(PENTAMETHYLDISILANYL)ANTHRACENE; EI-MS
Name: 9-ANTHRYLPENTAMETHYLDISILANE
Formula: C19H24Si2
Exact mass: 308.14165
Instrument type: EI-MS
m/z	relative intensity
43	43
45	70
47	17
53	18
59	28
63	12
73	196
74	21
75	143
76	49
77	21
88	21
89	37
117	10
150	13
151	21
152	28
165	26
176	34
177	22
178	180
179	47
180	33
181	13
189	18
191	34
192	16
193	14
195	11
202	18
203	20
204	24
205	60
206	16
207	25
208	38
209	12
217	71
218	31
219	101
220	71
221	19
231	20
232	16
233	78
234	44
235	999
236	241
237	71
249	21
250	39
251	13
277	16
293	40
294	13
308	216
309	70
310	26
