Mass spectrum: 2-METHYL-5-NITROINDOLE; EI-MS
Formula: C9H8N2O2
Exact mass: 176.05858
Instrument type: EI-MS
m/z	relative intensity
45	87
55	333
56	97
57	62
60	236
61	35
67	63
68	5
69	802
70	94
71	333
73	34
77	122
81	277
82	80
83	24
84	83
85	132
87	31
95	10
96	59
97	177
98	63
102	3
103	236
109	38
111	56
118	4
123	31
129	128
130	667
131	4
137	31
146	59
176	999
177	135
