Mass spectrum: ETHYL ISOVALERATE; EI-MS
Name: 3-METHYLBUTANOIC ACID ETHYL ESTER
Formula: C7H14O2
Exact mass: 130.09938
Instrument type: EI-MS
m/z	relative intensity
15	42
26	21
27	248
28	47
29	671
30	14
31	19
38	11
39	147
40	26
41	371
42	86
43	230
44	13
45	185
53	13
55	56
56	72
57	623
58	29
59	136
60	435
61	243
69	35
70	157
71	12
73	63
85	681
86	40
87	123
88	999
89	49
101	14
103	42
115	103
130	49
