Mass spectrum: FLUOROBENZENE; EI-MS
Formula: C6H5F
Exact mass: 96.03753
Instrument type: EI-MS
m/z	relative intensity
31	14
37	22
38	27
39	55
48	16
49	14
50	123
51	61
52	10
57	36
63	33
68	23
69	33
70	217
74	34
75	68
76	22
77	13
94	14
95	56
96	999
97	61
