Mass spectrum: N-ACETYL-GLYCYL-GLYCINE METHYL ESTER; EI-MS
Formula: C7H12N2O4
Exact mass: 188.07971
Instrument type: EI-MS
m/z	relative intensity
15	124
28	102
29	37
30	999
31	116
32	16
42	49
43	36
44	31
45	85
56	67
57	2
58	31
59	17
72	235
73	79
74	34
85	17
88	57
90	3
100	188
101	11
129	28
158	1
188	10
189	10
