Mass spectrum: HEXYL BENZOATE; EI-MS
Formula: C13H18O2
Exact mass: 206.13068
Instrument type: EI-MS
m/z	relative intensity
27	52
28	46
29	55
39	34
41	109
42	103
43	113
50	23
51	139
54	10
55	132
56	288
57	18
69	107
76	19
77	447
78	33
79	68
83	12
84	163
85	11
105	999
106	79
122	152
123	882
124	65
