Mass spectrum: 2,5-DICHLOROBENZOIC ACID METHYL ESTER; EI-MS
Formula: C8H6Cl2O2
Exact mass: 203.97448
Instrument type: EI-MS
m/z	relative intensity
50	110
73	71
74	309
75	28
84	67
85	24
109	302
110	10
111	92
145	466
146	24
147	31
149	28
173	366
174	117
175	999
176	142
177	24
204	455
205	19
206	149
207	32
