Mass spectrum: 1,4-DIMETHOXYBICYCLO(2.2.2)OCT-5-EN-2-ONE; EI-MS
Formula: C10H14O3
Exact mass: 182.09429
Instrument type: EI-MS
m/z	relative intensity
15	31
32	58
43	34
45	31
56	3
58	31
74	42
78	29
79	3
108	158
109	225
110	37
111	5
120	26
121	34
122	156
123	12
124	65
126	361
127	4
135	39
138	39
139	52
140	999
141	131
142	39
150	41
154	18
155	31
182	113
