Mass spectrum: METHYL PROPYL SULFIDE; EI-MS
Formula: C4H10S
Exact mass: 90.05032
Instrument type: EI-MS
m/z	relative intensity
15	51
26	27
27	288
29	24
35	112
37	13
38	24
39	212
40	25
41	350
42	96
43	181
45	251
46	120
47	233
48	409
49	188
50	17
58	24
59	30
61	999
62	41
63	39
75	98
90	454
91	20
92	18
