Mass spectrum: TETRAISOPROPYL-2-TETRAZENE; EI-MS
Formula: C12H28N4
Exact mass: 228.2314
Instrument type: EI-MS
m/z	relative intensity
27	107
29	11
30	32
31	5
39	26
40	7
41	178
42	26
43	729
44	214
45	5
54	0
55	3
56	107
57	11
58	999
59	36
60	2
68	3
69	0
70	36
71	8
72	2
73	31
74	11
84	42
85	7
86	6
87	3
98	4
99	10
100	2
101	8
115	42
116	3
128	1
155	1
228	307
229	36
230	2
