Mass spectrum: METHYL 4-METHYL-3-CYCLOHEXENYL KETONE; EI-MS
Name: 4-ACETYL-1-METHYLCYCLOHEXENE
Formula: C9H14O
Exact mass: 138.10447
Instrument type: EI-MS
m/z	relative intensity
41	214
43	922
45	58
51	51
53	138
55	291
65	56
67	439
68	140
71	42
77	149
78	30
79	247
80	161
81	116
91	93
92	31
93	201
94	164
95	999
96	85
105	134
109	50
123	444
124	40
138	757
139	80
