Mass spectrum: 4-BENZYLOXYBENZALDEHYDE; EI-MS
Formula: C14H12O2
Exact mass: 212.08373
Instrument type: EI-MS
m/z	relative intensity
39	54
41	12
51	22
63	23
64	9
65	101
89	12
90	6
91	999
92	75
212	38
213	6
