Mass spectrum: 1-HEXADECYL-2,3-DITRIMETHYLSILYLGLYCEROL; EI-MS
Formula: C25H56O3Si2
Exact mass: 460.3768
Instrument type: EI-MS
m/z	relative intensity
71	30
73	16
75	2
85	4
117	198
118	23
119	2
129	69
130	202
131	126
132	3
133	263
134	30
135	14
137	0
145	17
149	3
206	194
207	82
208	1
313	76
314	2
445	38
446	13
447	5
