Mass spectrum: METHYL 4-METHYLENECYCLOHEXANECARBOXYLATE; EI-MS
Formula: C9H14O2
Exact mass: 154.09938
Instrument type: EI-MS
m/z	relative intensity
40	33
42	138
43	17
45	14
51	26
52	17
53	87
54	36
55	300
56	14
59	47
63	10
65	37
66	29
67	160
68	196
69	21
77	81
78	20
79	334
80	54
81	24
87	586
88	27
91	52
92	12
93	95
94	999
95	576
96	42
107	11
111	14
122	278
123	141
124	13
125	12
139	21
154	102
155	11
