Mass spectrum: CHOLESTANE; EI-MS
Formula: C27H48
Exact mass: 372.3756
Instrument type: EI-MS
m/z	relative intensity
29	60
41	200
42	20
43	300
53	30
54	20
55	400
56	4
57	200
67	330
68	100
69	23
70	20
71	100
77	40
79	16
80	50
81	450
82	100
83	20
84	20
85	20
93	220
94	2
95	450
97	130
105	60
106	3
107	190
108	210
109	450
110	6
111	60
119	40
120	30
121	22
122	190
123	210
124	30
125	2
133	40
134	20
135	150
137	10
148	160
149	500
150	200
151	10
152	20
161	60
162	80
163	9
164	20
175	90
176	30
177	3
189	40
190	30
191	20
203	14
204	40
216	20
217	999
218	68
219	190
220	20
232	130
233	4
259	20
262	120
263	30
357	26
372	500
373	160
374	20
