Mass spectrum: (29H,31H-PHTHALOCYANINATO(2-)-N(29),N(30),N(31),N(32))NICKEL; EI-MS
Name: PHTHALOCYANINENICKEL(2)
Formula: C32H16N8Ni
Exact mass: 570.08514
Instrument type: EI-MS
m/z	relative intensity
128	10
186	40
187	10
188	20
285	60
285.5	30
286	30
286.5	10
287	10
570	999
571	540
572	540
573	220
574	140
575	50
