Mass spectrum: 4,8,12-TRIMETHYL-3,7,11-TRIDECATRIENAL; EI-MS
Formula: C16H26O
Exact mass: 234.19837
Instrument type: EI-MS
m/z	relative intensity
27	87
29	90
39	110
41	525
42	38
43	128
54	120
55	150
56	28
57	56
65	38
67	150
68	77
69	999
70	87
71	190
77	70
79	86
80	103
81	597
82	128
83	75
84	442
85	50
91	82
92	37
93	165
94	93
95	270
96	100
97	60
105	78
107	166
108	66
109	278
110	68
111	20
119	45
121	102
122	53
123	130
124	39
125	28
127	10
132	30
133	107
134	27
135	80
136	148
137	108
138	86
139	20
142	29
149	50
150	22
151	38
159	67
177	85
187	28
202	38
205	31
220	45
