Mass spectrum: 3,3-DIMETHYL-2-BUTANONE; EI-MS
Formula: C6H12O
Exact mass: 100.08882
Instrument type: EI-MS
m/z	relative intensity
15	52
27	56
28	15
29	293
38	13
39	169
40	11
41	559
42	47
43	426
51	13
53	12
55	36
56	51
57	999
58	37
69	17
85	43
100	276
101	21
