Mass spectrum: ISOBUTYL ACETATE; EI-MS
Formula: C6H12O2
Exact mass: 116.08373
Instrument type: EI-MS
m/z	relative intensity
15	50
17	40
18	195
26	4
27	75
28	40
30	20
31	1
39	40
40	20
41	120
43	999
44	30
45	20
46	10
55	3
56	325
57	45
61	30
70	3
72	190
73	20
87	20
