Mass spectrum: ETHYL BENZOATE; EI-MS
Formula: C9H10O2
Exact mass: 150.06808
Instrument type: EI-MS
m/z	relative intensity
14	18
25	22
26	92
27	38
28	96
30	18
38	12
39	21
43	21
45	15
50	113
51	259
52	19
65	11
74	51
75	30
76	42
77	543
78	58
91	12
105	999
106	93
122	261
123	23
135	10
149	14
150	196
151	23
