Mass spectrum: 1-PENTANOL; EI-MS
Name: AMYL ALCOHOL
Formula: C5H12O
Exact mass: 88.08882
Instrument type: EI-MS
m/z	relative intensity
15	27
19	16
26	31
27	27
28	105
29	464
30	15
31	51
32	15
38	15
39	163
40	3
41	622
42	999
43	215
44	3
45	47
51	10
53	24
54	2
55	678
56	149
57	187
58	2
60	54
69	54
70	507
71	39
