Mass spectrum: 2-(TRIMETHYLSILYL)OXY-EICOSANOIC ACID TRIMETHYLSILYL ESTER; EI-MS
Formula: C26H56O3Si2
Exact mass: 472.3768
Instrument type: EI-MS
m/z	relative intensity
43	112
57	251
69	142
71	13
73	999
75	199
83	194
97	19
99	108
103	151
111	103
117	16
129	147
147	380
148	108
221	13
355	900
356	129
430	134
457	51
