Mass spectrum: DI(2-ETHYL HEXYL)PHTHALATE; EI-MS
Formula: C24H38O4
Exact mass: 390.27701
Instrument type: EI-MS
m/z	relative intensity
43	204
50	13
54	141
55	72
56	305
57	18
65	16
70	17
71	200
72	13
76	26
77	1
82	20
83	77
84	40
93	1
104	42
105	21
112	87
113	12
114	13
121	13
122	13
132	2
148	11
149	999
150	102
151	1
167	409
168	32
223	10
279	24
280	37
