Mass spectrum: METHYL (3R,6S)-3-(TERT-BUTYLDIMETHYLSILOXY)-7-HYDROXY-6-METHYLHEPTANOATE; EI-MS
Formula: C15H32O4Si
Exact mass: 304.20699
Instrument type: EI-MS
m/z	relative intensity
55	21
75	149
81	261
89	3
95	804
96	104
98	37
99	24
105	87
111	25
115	29
123	59
124	37
141	112
155	935
156	10
171	112
173	240
185	99
187	2
197	253
198	29
205	41
215	48
216	54
217	128
218	29
220	9
229	870
230	62
231	37
247	999
248	178
249	29
