Mass spectrum: ACRYLAMIDE; EI-MS
Formula: C3H5NO
Exact mass: 71.03711
Instrument type: EI-MS
m/z	relative intensity
14	35
15	52
16	96
25	21
26	250
27	887
28	180
29	23
30	172
42	49
43	185
44	879
45	48
52	30
53	56
55	689
70	54
71	999
72	30
