Mass spectrum: 1,3,5-TRIMETHYLBENZENE; EI-MS
Name: MESITYLENE
Formula: C9H12
Exact mass: 120.0939
Instrument type: EI-MS
m/z	relative intensity
27	54
38	11
39	98
40	13
41	49
50	30
51	75
52	26
53	35
57.5	15
58	20
59	23
62	13
63	42
65	54
74	11
77	134
78	46
79	109
89	12
91	99
92	15
102	12
103	72
104	26
105	999
106	88
115	34
117	27
119	121
120	498
121	49
