Mass spectrum: 2-DIETHYLAMINOETHANOL; EI-MS
Formula: C6H15NO
Exact mass: 117.11536
Instrument type: EI-MS
m/z	relative intensity
28	12
29	26
30	177
42	17
44	29
45	28
56	32
57	11
58	319
59	14
70	13
72	32
86	999
87	62
88	23
102	73
116	26
117	59
