Mass spectrum: 2,5-DIMETHYL-2-PHENYL-4-HEXEN-1-OL; EI-MS
Formula: C14H20O
Exact mass: 204.15142
Instrument type: EI-MS
m/z	relative intensity
27	26
29	58
31	14
39	3
41	103
43	267
44	15
51	2
53	24
55	27
56	232
57	1
65	17
67	10
69	77
70	5
77	68
78	31
79	27
91	14
93	82
103	39
105	60
115	7
116	19
117	304
118	85
128	2
129	21
131	85
134	294
135	999
136	101
143	22
173	19
204	10
