Mass spectrum: N,N,N',N'-TETRAMETHYL-1,3-DIAMINOPROPANE; EI-MS
Formula: C7H18N2
Exact mass: 130.147
Instrument type: EI-MS
m/z	relative intensity
15	51
27	19
28	35
29	2
30	63
39	19
41	34
42	21
43	65
44	133
56	33
57	6
58	999
59	43
70	274
71	4
72	63
84	149
85	346
86	3
130	41
