Mass spectrum: ETHYL N-(PARA-CHLOROPHENYL)CARBAMATE; EI-MS
Formula: C9H10ClNO2
Exact mass: 199.04001
Instrument type: EI-MS
m/z	relative intensity
25	3
26	36
27	262
28	6
29	852
30	30
31	29
35	0
36	7
37	27
38	54
39	8
40	16
41	20
42	11
43	2
44	16
45	64
46	6
47	1
48	2
49	15
50	48
51	3
52	30
53	6
54	4
55	0
56	1
57	1
60	3
61	2
62	54
63	200
64	90
65	11
66	15
67	5
71	1
72	1
73	102
74	28
75	88
76	2
77	34
78	12
79	7
80	0
81	3
84	4
85	8
86	1
87	6
88	12
89	23
90	11
91	96
92	82
93	25
94	0
95	2
96	1
97	5
98	2
99	250
100	80
101	84
102	3
103	4
104	18
105	17
106	1
107	3
108	3
109	1
110	0
111	48
112	13
113	27
114	1
115	4
116	3
117	2
118	1
119	10
120	22
121	3
122	0
123	1
124	5
125	90
126	25
127	999
128	144
129	320
130	3
131	1
135	1
136	4
137	1
138	7
139	6
140	566
141	5
142	184
143	17
144	1
152	0
153	110
154	76
155	42
156	3
157	3
164	4
165	1
166	0
170	10
171	72
172	20
173	2
174	5
179	3
180	1
181	0
182	4
183	1
184	3
198	0
199	666
200	128
201	228
202	4
203	4
204	1
