Mass spectrum: 2-METHYLPENTANE; EI-MS
Name: ISOHEXANE
Formula: C6H14
Exact mass: 86.10955
Instrument type: EI-MS
m/z	relative intensity
15	12
27	167
28	14
29	118
38	11
39	160
40	26
41	340
42	534
43	999
44	34
53	16
55	76
56	61
57	144
70	110
71	442
72	25
85	11
86	58
