Mass spectrum: 2-METHYLPROPYL BENZOATE; EI-MS
Name: ISOBUTYL BENZOATE
Formula: C11H14O2
Exact mass: 178.09938
Instrument type: EI-MS
m/z	relative intensity
27	53
29	36
39	55
41	95
43	27
50	47
51	167
55	11
56	238
57	21
74	11
76	21
77	415
78	32
79	23
105	999
106	82
122	17
123	451
124	35
