Mass spectrum: 3-METHYL-2-BUTENAL; EI-MS
Formula: C5H8O
Exact mass: 84.05751
Instrument type: EI-MS
m/z	relative intensity
39	414
40	66
41	715
42	30
43	272
44	13
52	10
53	99
54	10
55	999
56	15
57	30
66	30
68	10
69	96
82	321
84	572
