Mass spectrum: 2,3,5,6-TETRAMETHYLPYRAZINE; EI-MS
Formula: C8H12N2
Exact mass: 136.10005
Instrument type: EI-MS
m/z	relative intensity
39	124
42	566
53	63
54	999
55	55
80	30
94	53
95	131
121	19
135	83
136	639
137	140
