Mass spectrum: 1-(4-TRIMETHYLSILYLMETHYL-3-CYCLOHEXENYL)-5-METHYL-4-HEXEN-1-OL; EI-MS
Formula: C17H32OSi
Exact mass: 280.22224
Instrument type: EI-MS
m/z	relative intensity
42	145
43	27
45	70
55	43
57	20
59	39
67	34
69	126
73	999
74	89
75	156
77	25
79	44
82	38
91	45
92	22
93	41
95	37
104	23
105	24
106	53
107	19
111	18
115	18
119	38
152	39
165	34
166	32
167	32
213	61
262	10
280	18
