Mass spectrum: BENZOTHIAZOLE; EI-MS
Formula: C7H5NS
Exact mass: 135.01427
Instrument type: EI-MS
m/z	relative intensity
45	30
63	30
69	152
82	84
91	63
108	296
109	33
135	999
136	87
137	33
