Mass spectrum: 3-ACETOXY-2-CHLOROPROMAZINE; EI-MS
Formula: C19H21ClN2O2S
Exact mass: 376.10123
Instrument type: EI-MS
m/z	relative intensity
41	19
42	119
43	159
44	3
45	9
56	14
57	39
58	999
59	69
84	59
85	29
86	9
87	109
185	19
220	19
221	2
222	9
223	9
247	9
248	6
249	29
250	14
334	24
336	1
341	69
342	29
376	319
377	7
378	129
379	19
