Mass spectrum: TRIMETHYL PHOSPHITE; EI-MS
Formula: C3H9O3P
Exact mass: 124.02893
Instrument type: EI-MS
m/z	relative intensity
15	156
31	20
45	72
47	69
62	39
63	390
77	10
79	149
93	999
95	279
96	11
109	549
110	13
124	426
125	19
