Mass spectrum: 4,5-METHYLENEPHENANTHRENE; EI-MS
Formula: C15H10
Exact mass: 190.07825
Instrument type: EI-MS
m/z	relative intensity
44	11
62	13
63	56
68	14
69	11
74	18
75	14
81	63
82	31
86	14
87	19
93	76
94	420
95	440
96	14
163	29
186	26
187	172
188	129
189	813
190	999
191	158
192	14
