Mass spectrum: ETHYL PHENYL ETHER; EI-MS
Formula: C8H10O
Exact mass: 122.07316
Instrument type: EI-MS
m/z	relative intensity
26	16
27	89
29	58
38	24
39	149
40	26
50	29
51	87
55	23
62	13
63	35
64	15
65	129
66	187
77	90
78	11
79	13
93	16
94	999
95	72
122	389
123	31
