Mass spectrum: ALLYL SALICYLATE; EI-MS
Formula: C10H10O3
Exact mass: 178.06299
Instrument type: EI-MS
m/z	relative intensity
39	83
41	824
64	20
65	137
92	366
93	91
105	38
120	999
121	692
122	58
131	11
132	31
133	10
160	22
178	277
179	19
