Mass spectrum: GAMMA-MUUROLENE; EI-MS
Formula: C15H24
Exact mass: 204.1878
Instrument type: EI-MS
m/z	relative intensity
26	5
27	47
39	60
40	1
41	207
42	15
43	65
51	0
52	10
53	65
54	8
55	12
56	10
57	15
63	6
64	1
65	42
66	13
67	100
68	2
69	121
70	11
77	130
78	3
79	221
80	42
81	195
82	2
83	13
89	5
91	243
92	12
93	335
94	121
95	73
96	0
103	18
104	16
105	381
106	8
107	95
108	25
109	30
110	1
115	30
116	12
117	40
118	2
119	347
120	100
121	100
122	3
123	15
124	5
127	12
128	2
129	15
130	8
131	30
132	1
133	182
134	100
135	73
136	1
137	6
143	5
145	26
146	1
147	60
148	60
149	20
150	1
159	20
160	26
161	999
162	14
163	13
175	20
176	15
189	11
190	15
204	330
205	50
206	5
