Mass spectrum: ADRENOLUTIN; EI-MS
Formula: C9H9NO3
Exact mass: 179.05824
Instrument type: EI-MS
m/z	relative intensity
14	20
15	176
18	51
26	24
27	173
28	104
29	77
37	4
38	80
39	240
40	55
41	18
42	646
43	88
44	79
49	3
50	215
51	334
52	194
52.5	10
53	191
53.5	22
54	63
55	19
56	36
57	17
60.5	18
61	5
62	156
63	135
64	81
65	11
66	86
67	114
68	87
69	4
74	19
75	34
76	36
77	20
78	77
79	71
80	66
81	15
82	114
89.5	82
90	41
91	3
92	27
93	37
94	68
95	5
103	16
104	116
105	89
106	4
107	39
108	86
109	176
110	4
118	19
121	23
122	51
123	999
124	85
127	27
129	15
132	31
133	51
134	29
135	23
136	30
137	35
149	24
150	32
151	77
164	25
165	12
178	7
179	870
180	104
