Mass spectrum: 4-METHYLCARBAZOLE; EI-MS
Formula: C13H11N
Exact mass: 181.08915
Instrument type: EI-MS
m/z	relative intensity
29	19
39	24
41	15
43	2
50	10
51	22
52	10
55	1
62	11
63	31
64	11
74	2
75	22
75.5	11
76	38
77	8
77.5	14
87	14
89	44
89.5	3
90	65
90.5	69
91	15
101	1
102	10
113	14
114	10
115	1
126	21
127	40
128	22
139	2
140	22
150	18
151	56
152	12
153	51
154	28
164	14
166	1
170	10
177	21
178	75
179	7
180	765
181	999
182	147
183	12
