Mass spectrum: 1-AMINO-2-PROPANOL; EI-MS
Formula: C3H9NO
Exact mass: 75.06841
Instrument type: EI-MS
m/z	relative intensity
15	35
17	13
18	29
19	2
27	40
28	124
29	26
30	999
31	127
32	63
39	12
41	3
42	53
43	32
44	47
45	8
56	22
60	43
75	12
