Mass spectrum: 2-ETHOXYETHANOL; EI-MS
Name: ETHYL CELLOSOLVE
Formula: C4H10O2
Exact mass: 90.06808
Instrument type: EI-MS
m/z	relative intensity
14	11
15	64
26	25
27	170
28	47
29	318
30	14
31	999
32	25
33	14
41	39
42	17
43	134
44	33
45	284
46	11
59	655
60	25
61	22
72	206
73	11
75	11
90	8
