Mass spectrum: NONYL ISOPENTANOATE; EI-MS
Name: NONYL ISOVALERATE
Formula: C14H28O2
Exact mass: 228.20893
Instrument type: EI-MS
m/z	relative intensity
27	195
29	381
31	15
39	149
41	810
42	256
43	798
44	17
45	18
53	30
54	47
55	475
56	527
57	972
58	39
59	35
60	111
61	187
67	39
68	103
69	317
70	397
71	256
72	13
81	15
82	110
83	261
84	304
85	873
86	43
87	139
96	35
97	268
98	251
99	16
101	14
102	79
103	999
104	41
111	11
126	334
127	28
143	11
158	16
171	13
