Mass spectrum: 4-PENTENYL ISOTHIOCYANATE; EI-MS
Formula: C6H9NS
Exact mass: 127.04557
Instrument type: EI-MS
m/z	relative intensity
39	532
41	999
42	128
45	15
53	234
55	192
58	106
59	9
60	128
67	340
68	149
69	11
70	340
72	255
85	213
99	17
126	149
127	170
128	60
129	75
