Mass spectrum: BENZOIN TETRAHYDROPYRAN-2-YL ETHER; EI-MS
Formula: C19H20O3
Exact mass: 296.14124
Instrument type: EI-MS
m/z	relative intensity
27	31
28	29
29	22
39	33
50	74
51	278
52	32
53	8
63	17
74	20
75	17
76	27
77	718
78	93
79	293
80	23
89	11
105	999
106	114
107	336
108	33
165	12
210	18
212	14
