Mass spectrum: TRIMETHYLTETRADECYLAMMONIUM BROMIDE; EI-MS
Formula: C17H38BrN
Exact mass: 335.21876
Instrument type: EI-MS
m/z	relative intensity
59	999
69	13
71	25
79	75
84	123
94	133
100	39
114	47
128	31
135	44
142	15
156	11
170	12
184	13
198	10
212	8
226	17
241	117
256	3
