Mass spectrum: PHENYLETHYL TRANS-2-HEXENOATE; EI-MS
Formula: C14H18O2
Exact mass: 218.13068
Instrument type: EI-MS
m/z	relative intensity
27	47
39	58
41	85
42	14
51	21
53	14
55	227
65	26
68	22
69	15
77	47
78	22
79	24
91	54
97	164
98	11
103	29
104	999
105	148
