Mass spectrum: TRANS-2-HEXENYL ISOVALERATE; EI-MS
Name: TRANS-2-HEXENYL ISOPENTANOATE
Formula: C11H20O2
Exact mass: 184.14633
Instrument type: EI-MS
m/z	relative intensity
27	166
29	197
39	190
41	526
42	75
43	118
53	62
54	122
55	393
56	54
57	827
58	30
59	26
60	19
67	291
68	17
69	24
81	26
82	201
83	201
84	16
85	999
86	55
87	14
99	18
100	21
103	19
155	13
184	17
