Mass spectrum: N-1'(S)-PHENYLETHYL-2(R),3(S)-DIMETHYL-4-PENTENAMIDE; EI-MS
Formula: C15H21NO
Exact mass: 231.16231
Instrument type: EI-MS
m/z	relative intensity
27	58
29	64
39	56
41	139
42	73
55	356
73	89
77	179
79	137
83	127
84	51
91	154
103	82
104	158
105	999
106	263
112	94
120	180
133	56
176	308
177	93
216	141
231	137
