Mass spectrum: 2-HEPTADECYL IMIDAZOLINE; EI-MS
Formula: C20H40N2
Exact mass: 308.31915
Instrument type: EI-MS
m/z	relative intensity
308	150
307	200
279	80
223	70
209	80
195	100
181	90
167	110
153	150
139	380
126	80
125	140
124	60
111	210
110	70
98	380
97	740
96	70
95	100
85	180
84	999
83	70
82	160
69	70
57	120
56	80
55	200
54	70
44	90
43	270
42	100
41	220
