Mass spectrum: ANTHRAQUINONE; EI-MS
Formula: C14H8O2
Exact mass: 208.05243
Instrument type: EI-MS
m/z	relative intensity
50	148
51	59
63	102
74	91
75	134
76	369
77	63
90	6
126	84
150	127
151	280
152	58
153	79
179	54
180	842
181	13
207	141
208	999
209	157
