Mass spectrum: 4-ETHYLPHENYL METHYL KETONE; EI-MS
Name: 4-ETHYLACETOPHENONE
Formula: C10H12O
Exact mass: 148.08882
Instrument type: EI-MS
m/z	relative intensity
27	62
28	98
29	10
32	2
39	65
41	10
42	11
43	24
50	39
51	95
52	20
53	3
62	13
63	62
64	18
65	4
74	17
75	19
76	26
77	20
78	57
79	141
89	70
90	6
91	40
102	19
103	118
104	4
105	236
106	21
133	999
134	10
148	411
149	48
