Mass spectrum: 2-PHENYLETHYL ISOTHIOCYANATE; EI-MS
Formula: C9H9NS
Exact mass: 163.04557
Instrument type: EI-MS
m/z	relative intensity
39	91
50	141
51	293
58	6
63	273
65	455
72	475
77	53
78	303
79	404
89	222
90	9
91	919
92	546
101	30
102	10
103	444
104	232
105	758
106	14
128	61
135	91
163	999
164	33
165	152
