Mass spectrum: (Z)-3,7-DIMETHYL-2,6-OCTADIEN-1-OL; EI-MS
Name: NEROL
Formula: C10H18O
Exact mass: 154.13577
Instrument type: EI-MS
m/z	relative intensity
41	111
43	23
55	25
56	2
57	24
59	51
67	48
68	23
69	999
70	79
71	75
72	4
79	26
80	267
81	84
82	2
83	71
84	331
85	43
91	1
92	119
93	478
94	94
107	5
108	19
109	31
110	41
111	16
112	43
121	195
136	135
137	2
139	93
154	84
