Mass spectrum: N-(2,2-DIDEUTERO-3-PHENYLPROPIONYL)PIPERIDIN-2-ONE; EI-MS
Formula: C14H17NO2
Exact mass: 231.12593
Instrument type: EI-MS
m/z	relative intensity
55	50
58	70
71	80
91	190
98	90
99	160
100	290
101	999
102	120
105	110
106	800
107	230
114	170
132	80
133	80
233	360
234	60
235	10
