Mass spectrum: 3-METHYL-3-PENTANOL; EI-MS
Formula: C6H14O
Exact mass: 102.10447
Instrument type: EI-MS
m/z	relative intensity
41	11
43	36
45	47
55	125
57	15
69	35
73	999
74	45
85	61
87	199
88	12
