Mass spectrum: N-SEC-BUTYLACETAMIDE; EI-MS
Formula: C6H13NO
Exact mass: 115.09971
Instrument type: EI-MS
m/z	relative intensity
15	47
27	34
28	41
29	4
30	22
39	18
41	56
42	4
43	199
44	999
45	25
55	2
56	27
57	22
58	242
60	5
72	25
86	279
87	15
115	6
116	18
