Mass spectrum: 2-HYDROXY-6-METHOXY-3,5-DIMETHYL-1,4-BENZOQUINONE; EI-MS
Formula: C9H10O4
Exact mass: 182.05791
Instrument type: EI-MS
m/z	relative intensity
37	50
38	120
39	470
40	70
41	160
42	30
43	250
44	10
45	20
49	10
50	60
51	90
52	60
53	240
54	140
55	660
56	180
57	20
59	10
61	10
62	20
63	50
64	20
65	180
66	150
67	280
68	60
69	90
70	30
71	30
77	60
78	100
79	70
80	60
81	60
82	60
83	999
84	80
85	40
90	10
91	20
92	10
93	60
94	60
95	100
96	100
97	60
98	10
99	40
105	10
106	30
107	50
108	60
109	40
110	10
111	690
112	60
121	10
122	20
123	30
124	40
125	40
126	20
127	10
135	20
136	80
137	20
138	10
139	650
140	70
141	10
151	10
152	30
153	50
154	130
155	10
163	10
164	30
165	20
167	70
168	10
181	30
182	440
183	100
184	10
