Mass spectrum: ORTHO-ETHYLPHENOL; EI-MS
Formula: C8H10O
Exact mass: 122.07316
Instrument type: EI-MS
m/z	relative intensity
18	18
27	20
38	16
39	5
41	14
43	14
45	15
50	1
51	42
52	15
53	21
60	2
61	15
62	13
63	20
65	2
77	181
78	28
79	81
91	4
94	18
103	41
104	15
105	1
107	999
108	74
120	30
121	39
122	31
