Mass spectrum: DIETHYL OXALATE; EI-MS
Formula: C6H10O4
Exact mass: 146.05791
Instrument type: EI-MS
m/z	relative intensity
27	79
28	86
29	999
30	36
31	143
43	26
45	103
56	11
57	14
73	18
74	67
75	13
146	1
