Mass spectrum: 1,7-DIMETHYLINDOLE; EI-MS
Formula: C10H11N
Exact mass: 145.08915
Instrument type: EI-MS
m/z	relative intensity
15	10
27	41
28	28
39	62
42	34
51	82
58.5	44
63	64
71.5	170
76	48
77	201
102	83
103	157
115	155
116	52
130	201
131	65
144	931
145	999
146	133
