Mass spectrum: ISOPENTYL PHENYLACETATE; EI-MS
Formula: C13H18O2
Exact mass: 206.13068
Instrument type: EI-MS
m/z	relative intensity
27	61
28	27
29	93
39	84
40	11
41	134
42	29
43	999
44	34
51	25
53	10
55	115
57	10
63	30
64	11
65	129
69	25
70	553
71	275
72	14
89	33
90	32
91	800
92	180
93	11
119	36
136	198
137	59
206	51
