Mass spectrum: ETHYL 2-METHYLBUTYRATE; EI-MS
Formula: C7H14O2
Exact mass: 130.09938
Instrument type: EI-MS
m/z	relative intensity
26	22
27	190
29	526
30	14
39	88
41	360
42	21
43	27
45	79
53	14
55	69
56	126
57	999
58	41
69	17
73	56
74	227
75	20
85	397
86	20
87	135
102	707
103	87
115	91
130	17
