Mass spectrum: L-FENCHONE; EI-MS
Name: (1S)-1,3,3-TRIMETHYLBICYCLO(2.2.1)HEPTAN-2-ONE
Formula: C10H16O
Exact mass: 152.12012
Instrument type: EI-MS
m/z	relative intensity
68	25
69	206
70	17
72	26
80	156
81	999
82	84
95	11
109	44
137	24
152	275
153	31
