Mass spectrum: 4-CHLORO-2-(3-NITROPHENYL)PYRIMIDINE; EI-MS
Formula: C10H6ClN3O2
Exact mass: 235.01485
Instrument type: EI-MS
m/z	relative intensity
36	22
37	7
38	8
39	1
40	50
41	5
43	3
44	5
49	5
50	69
51	43
52	4
53	10
57	4
60	5
61	1
62	10
63	17
64	12
65	0
73	12
74	24
75	105
76	9
76.5	5
77	59
77.5	5
81.5	0
86	7
87	5
88	5
90	1
94	4
94.5	22
95.5	5
99	1
99.5	3
100	12
101	36
102	21
104	5
107	5
108	5
111	1
113	5
114	5
115	8
116	1
117.5	3
126	43
127	64
128	9
129	160
130	12
141	5
142	3
149	5
150	7
153	89
154	13
155	18
162	38
163	52
164	2
165	18
177	86
178	12
179	3
188	5
189	999
190	108
191	32
192	31
199	10
200	131
201	2
205	12
218	3
219	2
221	0
228	3
235	996
236	107
237	32
238	31
