Mass spectrum: 1-HYDROXYMETHYL-CIS-4-METHYLCYCLOHEXANE; EI-MS
Formula: C8H16O
Exact mass: 128.12012
Instrument type: EI-MS
m/z	relative intensity
15	30
26	20
27	166
29	17
31	80
39	145
40	37
41	26
42	40
43	90
51	20
53	6
54	55
55	999
56	70
57	3
67	157
68	267
69	90
79	3
81	200
82	125
95	200
96	5
97	289
110	70
