Mass spectrum: 2,2'-DIHYDROXYDIPHENYL; EI-MS
Formula: C12H10O2
Exact mass: 186.06808
Instrument type: EI-MS
m/z	relative intensity
39	46
50	21
51	63
62	19
63	55
64	56
65	23
69	2
69.5	28
70	29
74	17
75	3
76	19
77	60
78	21
79	2
87	13
89	32
90	19
93	4
102	37
103	23
113	14
115	7
118	22
127	67
128	124
129	10
130	27
131	223
132	28
139	13
140	25
141	22
145	16
157	27
158	236
159	27
167	17
168	6
169	73
171	42
185	101
186	999
187	132
