Mass spectrum: TERPINOLENE; EI-MS
Name: PARA-MENTHA-1,4(8)-DIENE
Formula: C10H16
Exact mass: 136.1252
Instrument type: EI-MS
m/z	relative intensity
29	66
32	999
79	92
93	575
121	495
136	364
137	40
