Mass spectrum: 2-METHYLPENTANOIC ACID TRIMETHYLSILYL ESTER; EI-MS
Formula: C9H20O2Si
Exact mass: 188.12326
Instrument type: EI-MS
m/z	relative intensity
43	129
44	58
45	170
47	8
49	9
51	12
55	41
56	8
57	19
58	32
59	35
60	1
61	54
69	54
70	16
71	4
72	41
73	558
74	219
75	999
76	67
77	77
81	58
83	1
86	25
91	19
105	38
115	1
117	125
118	9
120	16
129	4
130	64
131	41
143	35
144	1
146	203
147	45
148	9
155	5
159	29
173	790
174	103
175	4
186	19
188	61
189	9
