Mass spectrum: DIALLYL ADIPATE; EI-MS
Formula: C12H18O4
Exact mass: 226.12051
Instrument type: EI-MS
m/z	relative intensity
29	83
30	11
31	45
38	16
39	256
40	12
41	999
42	78
43	91
44	15
45	11
53	16
54	18
55	347
56	90
57	147
58	40
59	39
67	22
68	15
69	22
71	10
79	11
80	18
81	118
82	12
83	126
84	82
85	47
95	43
99	64
100	49
101	102
109	15
111	637
112	165
113	44
127	63
129	73
140	38
141	64
142	15
153	72
168	14
169	298
170	34
