Mass spectrum: 2-PENTAFLOROETYLBENZIMIDAZ0L; EI-MS
Formula: C9H5F5N2
Exact mass: 236.03729
Instrument type: EI-MS
m/z	relative intensity
45	12
90	46
95	52
100	13
102	48
108	31
140	104
147	93
148	10
167	907
168	89
186	34
217	49
235	13
236	999
237	108
