Mass spectrum: NEROL; EI-MS
Name: (Z)-3,7-DIMETHYL-2,6-OCTADIEN-1-OL
Formula: C10H18O
Exact mass: 154.13577
Instrument type: EI-MS
m/z	relative intensity
40	43
41	999
42	62
43	11
44	14
51	23
53	91
54	2
55	106
56	38
57	29
59	1
65	18
67	129
68	136
69	65
70	57
71	55
77	25
79	3
80	62
81	49
82	23
83	5
84	90
85	15
91	27
92	2
93	124
94	20
95	23
96	1
97	25
98	12
107	14
111	3
121	36
123	27
136	10
139	14
