Mass spectrum: 2-(3,4-DIMETHOXYPHENYL)ETHYL ALPHA-(L)-RHAMNOPYRANOSYL(1.RAR.6)-4-O-(DI-O-METHYLCAFFEOYL)-BETA-(D)-GLUCOPYRANOSIDE; EI-MS
Name: FORSYTHOSIDE A TETRAMETHYL ETHER
Formula: C33H44O15
Exact mass: 680.26802
Instrument type: EI-MS
m/z	relative intensity
18	43
27	14
28	57
29	3
31	21
41	36
42	14
43	8
44	29
45	43
53	29
55	4
56	14
57	100
58	21
59	3
60	71
61	29
65	14
69	4
70	14
71	129
72	14
73	9
74	21
75	36
77	29
79	3
81	29
82	14
83	49
84	1
85	164
86	14
87	36
91	4
95	14
96	14
97	29
98	1
99	21
101	14
103	43
105	2
106	29
107	21
109	36
112	2
117	21
119	29
121	14
122	1
123	21
127	36
129	93
133	3
134	36
135	43
137	50
138	8
141	29
144	29
146	57
148	3
149	150
151	400
152	64
164	999
165	943
166	193
167	29
168	3
173	14
178	14
179	21
180	1
181	43
182	164
183	57
191	12
192	14
193	64
207	21
208	16
209	21
210	79
296	21
344	6
371	93
372	14
386	21
472	2
490	221
491	57
492	14
506	1
680	21
