Mass spectrum: 1,2-DIBROMOETHANE; EI-MS
Formula: C2H4Br2
Exact mass: 185.86798
Instrument type: EI-MS
m/z	relative intensity
14	15
25	34
26	211
27	858
28	148
79	28
81	28
93	40
95	34
105	27
106	37
107	999
108	50
109	944
110	21
186	12
188	22
190	11
