Mass spectrum: BENZYLMALONIC ACID BIS(TRIMETHYLSILYL) ESTER; EI-MS
Name: DI(TRIMETHYLSILYL) BENZYLMALONATE
Formula: C16H26O4Si2
Exact mass: 338.13696
Instrument type: EI-MS
m/z	relative intensity
43	129
44	255
45	301
47	22
49	114
51	124
73	333
75	999
76	104
77	675
78	116
91	12
93	124
103	148
104	244
131	20
132	136
147	175
161	53
205	8
207	38
