Mass spectrum: HEXADECYLTRIMETHYLAMMONIUM BROMIDE; EI-MS
Formula: C19H42BrN
Exact mass: 363.25006
Instrument type: EI-MS
m/z	relative intensity
43	56
59	999
69	23
71	23
84	12
94	30
100	9
114	12
128	5
135	11
142	3
156	3
170	2
184	2
198	2
212	3
226	2
240	3
254	4
269	26
284	2
