Mass spectrum: 4-METHYL-2-PHENYLTHIAZOLE; EI-MS
Formula: C10H9NS
Exact mass: 175.04557
Instrument type: EI-MS
m/z	relative intensity
26	11
27	37
29	42
34	1
38	13
39	105
40	95
41	2
42	14
43	68
45	155
46	2
50	43
51	78
52	18
62	1
63	26
69	38
70	15
71	54
72	999
73	72
74	61
75	2
76	63
77	116
78	20
87.5	4
88	12
91	11
99	10
100	2
101	23
102	10
103	58
104	17
105	26
121	18
174	10
175	88
176	108
177	48
