Mass spectrum: 11BETA-METHOXY-4ALPHA,6,6,8BETA-TETRAMETHYL-5ALPHA-TRICYCLO(6.3.0.0(1,5))UNDECAN-2-ONE; EI-MS
Formula: C16H26O2
Exact mass: 250.19328
Instrument type: EI-MS
m/z	relative intensity
18	50
28	58
43	43
57	2
58	16
69	26
72	41
81	2
93	17
95	25
107	18
109	9
119	17
121	31
123	70
135	2
137	98
153	12
161	22
179	999
180	132
250	11
