Mass spectrum: 3-METHYL-3-PARA-TOLYLSPIRO(4,5)DECAN-1-ONE; EI-MS
Formula: C18H24O
Exact mass: 256.18272
Instrument type: EI-MS
m/z	relative intensity
54	28
55	45
67	51
77	38
79	39
81	93
82	35
91	113
92	46
93	44
95	76
96	33
105	124
115	83
116	42
117	185
118	29
119	239
120	27
123	39
124	50
128	29
129	31
131	94
132	999
133	191
143	46
145	82
157	63
159	173
160	36
161	59
171	31
173	28
175	98
188	108
199	41
201	475
202	79
213	123
214	84
215	109
241	133
256	641
257	129
