Mass spectrum: 1-BROMO-3-CHLOROPROPANE; EI-MS
Formula: C3H6BrCl
Exact mass: 155.93414
Instrument type: EI-MS
m/z	relative intensity
27	122
28	28
39	75
40	34
41	999
42	36
49	64
51	21
63	18
75	16
76	448
77	745
78	165
79	237
93	13
95	12
107	85
109	83
120	18
122	17
156	256
157	9
158	332
159	10
160	81
161	3
