Mass spectrum: CUMENE; EI-MS
Name: ISOPROPYLBENZENE
Formula: C9H12
Exact mass: 120.0939
Instrument type: EI-MS
m/z	relative intensity
15	9
27	57
39	79
41	46
50	39
51	132
52	33
525	12
53	15
63	29
65	27
74	13
75	12
76	12
77	167
78	62
79	153
89	10
91	62
103	72
104	22
105	999
106	85
119	8
120	239
121	22
