Mass spectrum: DIPHENYL; EI-MS
Name: BIPHENYL
Formula: C12H10
Exact mass: 154.07825
Instrument type: EI-MS
m/z	relative intensity
39	20
76	12
77	24
78	17
89	14
102	34
115	66
127	26
128	89
139	16
151	44
152	226
153	309
154	999
155	127
156	8
