Mass spectrum: BUTANE (D10); EI-MS
Formula: C4H10
Exact mass: 58.07825
Instrument type: EI-MS
m/z	relative intensity
18	20
28	247
29	17
30	29
31	22
32	226
33	34
34	32
40	17
42	93
44	22
45	2
46	246
47	23
48	122
49	12
50	999
51	32
66	16
67	2
68	108
