Mass spectrum: 2,3,6-TRIMETHYL-5-NITROINDOLE; EI-MS
Formula: C11H12N2O2
Exact mass: 204.08988
Instrument type: EI-MS
m/z	relative intensity
39	395
40	13
41	199
42	14
43	284
44	520
45	170
51	4
52	36
53	51
54	13
55	15
56	37
57	250
61	14
62	1
63	130
64	24
65	114
66	2
67	22
68	12
69	146
70	2
71	96
73	72
74	65
75	5
76	79
77	44
78	100
79	12
81	35
82	11
83	45
84	1
85	112
87	15
89	65
90	1
91	105
95	14
97	26
101	1
102	34
103	29
104	10
114	1
115	332
116	85
117	36
118	1
127	25
128	56
129	42
130	8
131	48
132	196
141	24
142	12
143	253
144	62
145	26
146	2
154	20
155	15
156	213
157	46
158	552
159	442
160	34
174	1
187	580
188	46
203	10
204	999
205	51
