Mass spectrum: 2-ETHYL-3-METHYLPYRAZINE; EI-MS
Formula: C7H10N2
Exact mass: 122.0844
Instrument type: EI-MS
m/z	relative intensity
26	141
27	29
39	179
40	310
41	348
42	350
52	21
53	141
54	233
55	268
56	230
57	80
66	122
67	832
68	153
79	122
80	589
81	562
82	50
92	21
93	394
94	727
95	222
106	32
107	251
108	11
119	24
120	196
121	999
122	881
123	341
124	11
