Mass spectrum: 4-METHOXY-4-PHENYLBUT-1-ENE; EI-MS
Formula: C11H14O
Exact mass: 162.10447
Instrument type: EI-MS
m/z	relative intensity
41	31
50	23
51	86
52	19
53	20
63	19
65	28
77	254
78	48
89	13
91	149
92	11
103	13
105	55
115	20
121	999
122	89
128	20
129	22
130	12
131	13
