Mass spectrum: 2-ETHYLBUTANOL; EI-MS
Formula: C6H14O
Exact mass: 102.10447
Instrument type: EI-MS
m/z	relative intensity
15	11
26	13
27	194
28	12
29	229
31	178
39	129
40	13
41	276
42	115
43	999
44	38
45	23
53	26
54	12
55	325
56	128
57	46
69	99
70	429
71	356
72	19
84	122
