Mass spectrum: 7-METHOXY-2,3-DIMETHYLINDOLE; EI-MS
Formula: C11H13NO
Exact mass: 175.09971
Instrument type: EI-MS
m/z	relative intensity
45	30
87	30
131	41
132	32
144	36
159	63
160	274
174	30
175	999
176	106
