Mass spectrum: METHYL 3,4-EPOXY-4-TRIMETHYLSILYLMETHYLCYCLOHEXANECARBOXYLATE; EI-MS
Formula: C12H22O3Si
Exact mass: 242.13382
Instrument type: EI-MS
m/z	relative intensity
43	76
45	152
47	76
55	323
59	189
61	148
73	818
74	86
75	999
76	81
77	157
87	90
89	303
91	273
92	83
93	748
94	62
109	73
121	70
149	252
151	73
159	329
167	303
182	123
183	660
184	116
213	14
224	22
227	76
228	14
242	23
