Mass spectrum: ISOPROPYLHYDRAZONE ALPHA-ISOPROPYLACRYLALDEHYDE; EI-MS
Name: 2-ISOPROPYL-2-PROPENAL ISOPROPYLHYDRAZONE
Formula: C9H18N2
Exact mass: 154.147
Instrument type: EI-MS
m/z	relative intensity
27	137
28	32
29	37
30	4
39	100
40	22
41	326
42	17
43	242
44	221
53	39
54	3
55	229
56	58
57	17
58	4
67	42
68	29
69	999
70	6
71	12
80	15
81	31
82	2
83	42
84	14
94	22
95	4
96	79
97	71
98	14
110	1
111	231
112	18
139	358
140	4
153	14
154	187
155	21
