Mass spectrum: 4-(TRIMETHYLSILYLMETHYL)CYCLOHEX-3-ENECARBOXALDEHYDE DIMETHYLHYDRAZONE; EI-MS
Formula: C13H26N2Si
Exact mass: 238.18653
Instrument type: EI-MS
m/z	relative intensity
42	75
43	116
44	84
45	136
58	56
59	201
73	999
74	105
75	53
83	235
86	48
92	37
98	758
99	63
102	78
151	79
165	60
166	103
168	44
179	66
180	34
183	172
193	47
194	50
208	49
223	121
237	48
238	278
239	61
