Mass spectrum: 4-(3-(4-(3-HYDROXYBUTOXY)PHENOXY)PROPYL)MORPHOLINE; EI-MS
Formula: C17H27NO4
Exact mass: 309.19401
Instrument type: EI-MS
m/z	relative intensity
42	7
43	14
44	48
55	11
56	16
57	7
67	4
69	5
70	95
71	13
72	5
73	7
79	4
81	5
82	4
83	4
84	14
85	8
86	37
87	25
88	33
93	3
95	4
97	11
98	34
99	6
100	999
101	70
104	4
107	3
108	4
109	5
110	13
112	4
113	29
114	4
117	2
119	6
126	7
127	4
128	853
129	72
130	7
131	3
133	5
135	2
143	2
144	4
145	3
147	3
148	2
149	6
150	3
204	3
237	1
281	5
294	10
308	5
309	41
310	8
