Mass spectrum: DIETHYL SULFIDE; EI-MS
Name: DIETHYL THIOETHER
Formula: C4H10S
Exact mass: 90.05032
Instrument type: EI-MS
m/z	relative intensity
26	29
27	231
28	59
29	303
34	29
35	103
41	137
45	91
46	115
47	669
48	20
49	33
55	11
56	14
57	29
58	45
59	71
60	103
61	500
62	523
63	40
64	23
75	999
76	43
77	46
89	37
90	957
91	97
92	46
