Mass spectrum: TRIACETIN; EI-MS
Name: GLYCEROL TRIACETATE
Formula: C9H14O6
Exact mass: 218.07904
Instrument type: EI-MS
m/z	relative intensity
43	999
44	22
56	10
57	10
73	39
74	35
86	82
98	16
103	458
104	21
115	153
116	226
117	17
145	529
146	41
158	13
159	18
