Mass spectrum: 3-AMINO-1-PROPANOL; EI-MS
Formula: C3H9NO
Exact mass: 75.06841
Instrument type: EI-MS
m/z	relative intensity
15	25
17	15
18	222
26	1
27	43
28	114
29	30
30	999
31	57
39	10
41	18
42	4
43	18
44	65
45	35
56	4
57	17
75	25
