Mass spectrum: 1-(TETRAHYDRO-2-PYRANYL)-5-FLUOROURACIL; EI-MS
Formula: C9H11FN2O3
Exact mass: 214.07537
Instrument type: EI-MS
m/z	relative intensity
53	50
54	60
55	190
56	1
57	230
58	60
59	40
60	1
67	240
68	30
70	40
71	0
83	50
84	80
85	999
86	2
87	120
88	50
113	60
114	0
116	40
126	40
130	110
131	1
156	40
214	200
215	60
