Mass spectrum: ISOBUTYL ACETATE; EI-MS
Formula: C6H12O2
Exact mass: 116.08373
Instrument type: EI-MS
m/z	relative intensity
29	19
41	72
43	999
44	22
55	22
56	514
57	46
61	46
71	53
73	254
74	29
86	35
116	6
