Mass spectrum: L-MENTHYL 2-METHYLBUTYRATE; EI-MS
Name: 5-METHYL-2-(1-METHYLETHYL)CYCLOHEXYL 2-METHYLBUTYRATE
Formula: C15H28O2
Exact mass: 240.20893
Instrument type: EI-MS
m/z	relative intensity
27	103
29	220
39	75
41	414
42	28
43	182
53	39
54	39
55	310
56	55
57	999
58	34
65	12
67	113
68	40
69	215
70	19
71	38
77	14
79	25
80	28
81	331
82	132
83	484
84	33
85	294
86	14
93	12
94	49
95	512
96	138
97	91
103	28
109	34
110	22
123	160
124	13
137	21
138	487
139	115
