Mass spectrum: DIMETHYL PHTHALATE; EI-MS
Formula: C10H10O4
Exact mass: 194.05791
Instrument type: EI-MS
m/z	relative intensity
50	96
51	42
52	12
58	23
62	21
63	25
65	13
66	9
74	40
75	31
76	102
77	156
78	16
79	13
91	12
92	80
93	10
104	44
105	27
119	9
120	21
133	42
135	58
136	9
149	9
163	999
164	91
165	13
194	131
195	16
