Mass spectrum: 2-METHOXY-4-(2-PROPENYL)PHENOL; EI-MS
Name: EUGENOL
Formula: C10H12O2
Exact mass: 164.08373
Instrument type: EI-MS
m/z	relative intensity
15	68
26	14
27	89
29	26
38	24
39	166
40	25
41	74
43	34
50	47
51	146
52	66
53	82
55	220
62	22
63	70
64	19
65	129
66	63
67	16
74	13
75	15
76	13
77	327
78	94
79	78
81	23
89	20
91	235
92	25
93	51
94	84
95	10
102	20
103	269
104	176
105	79
106	11
107	30
109	11
115	19
119	18
120	11
121	162
122	66
131	222
132	86
133	166
134	18
135	14
137	181
138	15
147	37
149	303
150	25
163	34
164	999
165	102
