Mass spectrum: 6-UNDECANONE; EI-MS
Formula: C11H22O
Exact mass: 170.16707
Instrument type: EI-MS
m/z	relative intensity
27	233
28	12
29	322
39	121
40	12
41	297
42	107
43	999
44	26
53	22
55	139
56	23
57	33
58	503
59	136
67	10
69	12
70	11
71	543
72	96
81	14
85	47
99	475
100	26
114	58
115	15
127	42
170	24
