Mass spectrum: O-METHYLACETOPHENONE; EI-MS
Name: 2-METHYLACETOPHENONE
Formula: C9H10O
Exact mass: 134.07316
Instrument type: EI-MS
m/z	relative intensity
15	30
27	26
38	24
39	190
41	26
42	12
43	208
46	16
50	60
51	103
52	18
53	11
61	13
62	37
63	141
64	29
65	277
66	21
74	16
75	14
77	40
78	10
79	11
89	94
90	35
91	993
92	78
103	12
115	13
119	999
120	85
134	473
135	37
