Mass spectrum: NITRILOTRIACETIC ACID TRIS(TRIMETHYLSILYL)ESTER; EI-MS
Formula: C15H33NO6Si3
Exact mass: 407.16157
Instrument type: EI-MS
m/z	relative intensity
42	50
44	100
45	30
56	3
58	30
61	20
72	60
73	80
74	80
77	60
100	20
101	3
103	380
104	20
116	80
117	6
133	20
144	90
147	90
149	2
158	60
232	240
233	60
262	7
290	999
291	220
292	90
306	2
364	30
392	110
393	30
407	20
