Mass spectrum: ALPHA-(TRIMETHYLSILYL)OXY-DIPHENYLACETIC ACID TRIMETHYLSILYL ESTER; EI-MS
Name: TRIMETHYLSILYL ALPHA,ALPHA-DIPHENYL-ALPHA-TRIMETHYLSILOXYACETATE
Formula: C20H28O3Si2
Exact mass: 372.1577
Instrument type: EI-MS
m/z	relative intensity
43	75
45	197
73	856
74	4
75	100
77	104
105	82
147	18
148	17
165	68
166	21
239	2
255	999
256	223
257	50
329	53
