Mass spectrum: 4-HYDROXY-3-HEXANONE; EI-MS
Formula: C6H12O2
Exact mass: 116.08373
Instrument type: EI-MS
m/z	relative intensity
15	16
26	40
27	220
28	17
29	375
30	28
31	556
39	65
41	239
42	27
43	46
45	11
55	18
56	12
57	408
58	215
59	999
60	35
87	10
116	16
