Mass spectrum: 4-ETHYL-2-METHYLPHENOL; EI-MS
Formula: C9H12O
Exact mass: 136.08882
Instrument type: EI-MS
m/z	relative intensity
27	122
39	140
77	145
91	12
107	120
121	999
122	124
136	265
