Mass spectrum: ETHYL NITRITE; EI-MS
Formula: C2H5NO2
Exact mass: 75.03203
Instrument type: EI-MS
m/z	relative intensity
14	64
15	174
26	33
27	159
28	35
29	482
30	999
31	82
43	105
45	107
60	323
