Mass spectrum: (6Z,9Z)-6,9-HENTRIACONTADIENE; EI-MS
Formula: C31H60
Exact mass: 432.4695
Instrument type: EI-MS
m/z	relative intensity
41	369
42	96
43	682
44	25
53	26
54	306
55	999
56	289
57	411
58	28
66	27
67	357
68	295
69	735
70	192
71	179
72	17
73	25
77	17
79	71
80	67
81	362
82	612
83	765
84	94
85	124
86	18
91	21
94	41
95	383
96	634
97	483
98	32
109	204
110	309
111	260
113	19
121	20
122	14
123	180
124	215
125	74
126	18
137	112
138	117
139	35
151	38
152	62
153	14
165	19
166	74
167	15
179	16
180	30
193	29
194	44
207	54
221	22
222	39
236	27
250	21
263	11
264	14
278	15
281	61
282	28
292	19
306	38
307	10
320	69
321	16
333	20
334	29
341	10
348	33
432	237
433	104
434	16
