Mass spectrum: (2S,2'R)-N,N'-DICARBOBENZOXY-2,2'-BIPYRROLIDINE; EI-MS
Formula: C24H28N2O4
Exact mass: 408.20491
Instrument type: EI-MS
m/z	relative intensity
28	27
49	16
69	18
70	40
84	115
86	85
91	520
92	94
159	43
160	999
161	131
162	10
167	30
203	145
204	511
205	74
206	52
273	370
274	74
275	10
316	13
408	124
409	41
410	10
