Mass spectrum: 3-PHENYLPROPANOL; EI-MS
Name: 3-PHENYLPROPYL ALCOHOL
Formula: C9H12O
Exact mass: 136.08882
Instrument type: EI-MS
m/z	relative intensity
15	11
17	15
18	97
26	15
27	91
29	58
31	130
38	21
39	135
41	33
43	18
45	22
50	66
51	192
52	46
53	24
55	13
57	14
58	11
62	23
63	83
64	18
65	222
66	22
74	22
75	21
76	19
77	245
78	153
79	123
80	11
89	42
90	20
91	999
92	531
93	31
94	32
102	16
103	111
104	59
105	133
106	18
107	12
115	42
116	27
117	723
118	567
119	47
134	33
136	249
137	19
