Mass spectrum: METHYL 5,9-DIMETHYL-4,8-DECADIENOATE(E); EI-MS
Name: FARNECIC ACID METHYL ESTER(E)
Formula: C13H22O2
Exact mass: 210.16198
Instrument type: EI-MS
m/z	relative intensity
27	45
28	23
29	32
39	70
40	30
41	467
42	40
43	45
51	12
53	73
54	18
55	86
56	12
59	79
65	26
66	12
67	136
68	80
69	999
70	63
74	53
77	27
79	44
80	23
81	463
82	163
83	23
85	17
87	36
91	18
93	60
94	17
95	30
99	537
100	47
105	16
107	40
108	16
109	355
110	58
111	30
119	15
121	40
122	20
123	70
124	10
125	10
135	124
136	35
137	35
140	28
141	137
142	37
154	18
161	23
163	18
166	27
167	528
168	58
178	14
179	24
195	21
210	34
211	12
