Mass spectrum: ETHYL ISOBUTYRATE; EI-MS
Formula: C6H12O2
Exact mass: 116.08373
Instrument type: EI-MS
m/z	relative intensity
15	31
18	13
26	33
27	306
28	44
29	461
30	15
31	12
38	11
39	104
40	21
41	268
42	133
43	999
44	32
45	97
55	18
57	14
70	10
71	398
72	16
73	77
88	73
89	52
101	15
116	98
