Mass spectrum: 1-METHYL-1-(2-PROPYNYL)HYDRAZINE; EI-MS
Formula: C4H8N2
Exact mass: 84.06875
Instrument type: EI-MS
m/z	relative intensity
26	15
27	40
28	154
29	7
30	35
31	9
37	39
38	7
39	227
40	35
41	50
42	10
43	118
44	67
45	999
46	3
51	9
52	18
53	13
54	4
55	25
56	15
57	5
59	1
66	37
67	10
68	9
69	0
83	65
84	345
85	31
