Mass spectrum: DIBUTYLTIN DILAURATE; EI-MS
Formula: C32H64O4Sn
Exact mass: 632.38266
Instrument type: EI-MS
m/z	relative intensity
27	328
28	38
29	751
39	196
40	24
41	775
42	242
43	999
44	22
45	117
53	49
54	30
55	381
56	180
57	693
58	47
59	29
60	345
61	49
67	21
69	100
70	50
71	119
73	235
74	18
81	19
83	25
84	36
85	94
87	37
91	29
97	27
99	16
101	33
112	21
115	12
119	24
120	13
121	37
129	54
130	15
133	168
134	88
135	284
136	88
137	336
139	57
141	29
143	11
155	15
173	38
174	30
175	57
176	47
177	100
178	28
179	35
181	13
183	39
189	16
191	30
201	35
229	24
231	38
232	13
233	55
235	19
247	18
259	23
261	45
263	42
271	12
273	14
275	19
287	85
288	57
289	139
290	64
291	155
292	30
293	21
295	25
303	16
305	16
313	41
314	24
315	248
316	157
317	406
318	171
319	450
320	65
321	73
323	71
345	26
347	33
373	40
374	24
375	64
376	19
377	50
401	91
402	67
403	160
404	79
405	206
406	31
407	34
409	36
427	11
429	301
430	204
431	501
432	260
433	632
434	132
435	96
436	18
437	107
438	20
457	10
459	32
460	13
461	42
489	13
491	18
515	24
516	22
517	46
518	23
519	62
543	69
545	171
547	223
549	64
551	23
571	123
573	292
575	400
577	77
578	58
579	43
580	11
601	20
602	11
603	24
