Mass spectrum: 2-PHENOXYETHANOL; EI-MS
Formula: C8H10O2
Exact mass: 138.06808
Instrument type: EI-MS
m/z	relative intensity
43	53
44	22
45	277
50	54
51	150
52	17
54	26
61	18
62	36
63	15
65	112
66	164
74	15
75	13
76	14
77	294
78	32
79	47
91	15
93	19
94	999
95	159
96	13
107	68
121	19
138	418
139	47
