Mass spectrum: HEPTANEDIOIC ACID DIMETHYL ESTER; EI-MS
Name: DIMETHYL PIMELATE
Formula: C9H16O4
Exact mass: 188.10486
Instrument type: EI-MS
m/z	relative intensity
28	94
44	8
55	351
59	268
68	187
69	371
71	4
73	346
74	668
83	477
87	188
96	56
97	259
100	87
105	16
111	141
114	60
115	999
116	36
124	235
125	285
128	333
129	37
141	15
149	28
156	79
157	359
