Mass spectrum: MENTHONE; EI-MS
Name: PARA-MENTHAN-3-ONE
Formula: C10H18O
Exact mass: 154.13577
Instrument type: EI-MS
m/z	relative intensity
15	27
26	11
27	329
28	5
29	236
38	11
39	337
40	6
41	999
42	144
43	232
51	3
52	15
53	110
54	36
55	59
56	269
57	55
58	19
65	2
66	13
67	77
68	39
69	59
70	358
71	41
77	24
79	4
81	42
82	14
83	156
84	13
85	15
91	13
93	39
94	2
95	124
96	19
97	199
107	1
109	16
110	44
111	173
112	100
113	61
121	39
125	39
139	29
140	26
154	186
155	26
