Mass spectrum: CYCLODECYL FORMATE; EI-MS
Formula: C11H20O2
Exact mass: 184.14633
Instrument type: EI-MS
m/z	relative intensity
27	49
29	131
31	10
39	68
41	303
42	18
43	66
44	17
53	46
54	62
55	122
56	321
57	999
58	46
65	10
67	327
68	24
69	55
77	14
79	49
80	148
81	205
82	381
83	278
84	17
95	23
123	151
124	13
127	32
128	36
129	96
138	51
139	15
