Mass spectrum: TRIETHYLENETETRAMINE; EI-MS
Formula: C6H18N4
Exact mass: 146.15315
Instrument type: EI-MS
m/z	relative intensity
43	128
44	999
56	249
57	5
58	84
61	80
70	130
73	32
85	67
87	56
97	66
98	6
99	239
116	135
