Mass spectrum: 2-(2-AMINO-2-METHYLPROPYL)-1-METHYL-3-(1,2,2,6,6-PENTAMETHYL-1,2,3,6-TETRAHYDRO-4-PYRIDYL)INDOLE; EI-MS
Formula: C23H35N3
Exact mass: 353.2831
Instrument type: EI-MS
m/z	relative intensity
58	999
77	13
105	17
128	1
130	21
144	50
167	60
168	6
180	41
181	42
194	101
195	8
208	75
209	52
210	62
224	7
225	136
234	34
235	32
249	5
250	83
251	54
265	464
266	10
280	21
281	563
282	123
296	13
297	31
338	99
339	29
353	36
