Mass spectrum: VERATROL; EI-MS
Name: ORTHO-DIMETHOXYBENZENE
Formula: C8H10O2
Exact mass: 138.06808
Instrument type: EI-MS
m/z	relative intensity
31	14
39	16
41	100
51	104
52	53
55	25
65	104
77	228
78	27
80	44
92	16
93	24
95	431
96	32
122	14
123	399
124	31
138	999
139	92
