Mass spectrum: BENZYL TRANS-2-HEXENOATE; EI-MS
Formula: C13H16O2
Exact mass: 204.11503
Instrument type: EI-MS
m/z	relative intensity
14	72
27	101
38	20
39	149
41	152
42	34
43	10
45	11
50	20
51	74
52	29
53	37
54	14
55	491
56	25
63	41
65	136
66	17
67	18
68	53
69	37
70	13
77	85
78	24
79	88
80	11
81	19
83	15
89	54
90	91
91	999
92	68
97	803
98	58
105	32
107	97
108	42
113	12
115	37
117	70
118	13
129	26
131	18
132	14
133	41
144	68
145	15
147	40
148	68
157	12
158	13
159	29
161	58
162	32
204	54
205	11
