Mass spectrum: OCTANAL DIMETHYL ACETAL; EI-MS
Formula: C10H22O2
Exact mass: 174.16198
Instrument type: EI-MS
m/z	relative intensity
27	28
29	39
31	20
39	18
41	88
43	39
45	79
47	63
55	68
57	13
58	34
67	10
69	119
71	70
75	999
76	32
111	12
143	83
