Mass spectrum: 6-AMINOFLAVANONE; EI-MS
Name: 6-AMINO-2-PHENYLCHROMAN-4-ONE
Formula: C15H13NO2
Exact mass: 239.09463
Instrument type: EI-MS
m/z	relative intensity
32	24
39	33
41	25
50	2
51	70
52	178
53	59
63	2
69	18
77	84
78	145
79	39
80	45
91	12
103	100
104	7
106	18
107	215
108	21
134	9
135	999
136	83
149	101
162	4
238	41
239	533
240	88
