Mass spectrum: O-DECYLHYDROXYLAMINE; EI-MS
Formula: C10H23NO
Exact mass: 173.17796
Instrument type: EI-MS
m/z	relative intensity
38	114
39	86
41	405
42	16
43	999
44	76
45	24
46	3
53	24
54	38
55	286
56	20
57	714
58	38
68	71
69	15
70	181
71	381
72	24
81	2
82	57
83	100
84	71
85	29
86	24
95	17
96	19
97	1
98	24
99	33
110	15
111	2
112	48
128	5
140	19
141	1
173	5
