Mass spectrum: 3-PHENYLPROPYL ALCOHOL; EI-MS
Formula: C9H12O
Exact mass: 136.08882
Instrument type: EI-MS
m/z	relative intensity
31	24
58	10
65	58
77	55
78	104
79	163
90	28
91	900
92	721
93	76
103	161
104	26
105	214
115	57
116	112
117	999
118	982
119	174
136	498
137	48
