Mass spectrum: 3-PHENYLPROPYL ACETATE; EI-MS
Formula: C11H14O2
Exact mass: 178.09938
Instrument type: EI-MS
m/z	relative intensity
15	41
27	27
28	17
29	12
39	80
41	26
42	15
43	531
44	10
50	21
51	76
52	17
63	32
65	99
77	101
78	65
79	49
89	20
90	14
91	443
92	60
103	68
104	33
105	97
115	38
116	34
117	904
118	999
119	90
