Mass spectrum: PENTYL SALICYLATE; EI-MS
Formula: C12H16O3
Exact mass: 208.10994
Instrument type: EI-MS
m/z	relative intensity
29	24
41	24
42	10
43	219
55	57
65	37
77	10
79	10
92	122
93	18
120	999
121	194
122	10
138	275
139	30
208	114
209	13
