Mass spectrum: 1,5,5-TRIETHYL-3-METHYL-3,4-DIHYDROFORMAZAN; EI-MS
Formula: C8H20N4
Exact mass: 172.1688
Instrument type: EI-MS
m/z	relative intensity
27	224
28	280
29	360
30	18
31	44
41	44
42	312
43	7
44	999
45	36
46	44
56	12
57	40
58	288
59	60
70	4
71	114
72	520
73	96
85	2
86	40
87	124
99	184
114	5
115	760
116	64
