Mass spectrum: METHYL METHOXYACETATE (1,1,1-D3); EI-MS
Name: METHOXYACETIC ACID METHYL ESTER (1,1,1-D3)
Formula: C4H8O3
Exact mass: 104.04734
Instrument type: EI-MS
m/z	relative intensity
14	29
15	172
16	18
18	153
28	40
29	287
30	63
31	29
32	22
33	43
42	86
43	41
44	136
45	999
46	22
48	83
62	29
77	255
78	57
