Mass spectrum: 1-NONADECANOL; EI-MS
Formula: C19H40O
Exact mass: 284.30792
Instrument type: EI-MS
m/z	relative intensity
40	21
41	781
42	198
43	999
44	60
45	19
53	28
54	8
55	72
56	346
57	679
58	3
66	10
67	98
68	210
69	49
70	243
71	232
72	13
73	1
81	53
82	208
83	423
84	14
85	110
95	23
96	65
97	29
98	70
99	20
109	8
110	2
111	125
112	38
113	9
124	1
125	50
126	20
138	7
139	2
140	11
153	8
154	7
167	0
168	5
181	2
182	3
195	0
196	2
210	2
238	3
266	2
