Mass spectrum: N-METHYL-2,4-DINITROBENZENAMINE; EI-MS
Formula: C7H7N3O4
Exact mass: 197.04366
Instrument type: EI-MS
m/z	relative intensity
51	903
52	636
53	244
54	165
55	119
58	386
61	108
62	273
63	619
64	273
65	244
66	528
67	182
68	40
72	28
74	176
75	261
76	653
77	449
78	999
79	290
80	131
81	23
88	23
90	74
91	57
92	148
93	205
94	74
103	85
104	489
105	813
106	136
118	40
120	28
121	74
133	45
134	34
150	23
197	91
