Mass spectrum: 4-METHYLPENTAN-2-ONE; EI-MS
Name: 4-METHYL-2-PENTANONE
Formula: C6H12O
Exact mass: 100.08882
Instrument type: EI-MS
m/z	relative intensity
42	39
43	999
44	15
55	13
56	15
57	177
58	459
59	33
67	15
85	147
100	150
101	11
