Mass spectrum: PROPYL PROPIONATE; EI-MS
Formula: C6H12O2
Exact mass: 116.08373
Instrument type: EI-MS
m/z	relative intensity
15	19
26	48
27	319
28	98
29	498
30	20
31	65
39	57
40	11
41	149
42	104
43	271
55	11
56	18
57	999
58	38
59	58
74	27
75	350
76	11
87	66
