Mass spectrum: 2-PHENOXYETHANOL; EI-MS
Formula: C8H10O2
Exact mass: 138.06808
Instrument type: EI-MS
m/z	relative intensity
14	13
15	26
16	13
17	46
18	247
19	15
27	58
29	77
31	62
32	53
38	37
39	123
41	12
42	15
43	56
44	27
45	109
50	48
51	148
52	16
55	23
63	45
64	15
65	101
66	138
74	17
77	366
78	43
79	47
91	16
93	16
94	999
95	118
107	84
108	11
136	11
138	241
139	26
