Mass spectrum: 3-METHOXY-4-TRIMETHYLSILOXY-O-TRIMETHYLSILYL-DL-MANDELIC ACID TRIMETHYLSILYL ESTER; EI-MS
Name: TRIMETHYLSILYL DL-ALPHA-(3-METHOXY-4-TRIMETHYLSILOXY)PHENYL-ALPHA-TRIMETHYLSILOXYACETATE
Formula: C18H34O5Si3
Exact mass: 414.1714
Instrument type: EI-MS
m/z	relative intensity
44	66
45	241
73	729
74	6
75	166
77	133
93	58
147	9
193	50
194	87
209	50
223	6
267	33
297	999
298	254
299	10
371	33
399	25
