Mass spectrum: 5-METHYLHEXANOIC ACID; EI-MS
Formula: C7H14O2
Exact mass: 130.09938
Instrument type: EI-MS
m/z	relative intensity
15	16
26	12
27	228
28	19
29	127
31	16
38	12
39	207
40	28
41	491
42	144
43	502
44	14
45	150
53	25
55	210
56	55
57	29
60	999
61	32
67	13
68	14
69	307
70	54
71	549
72	24
73	300
74	39
83	11
87	371
88	77
89	27
94	34
97	73
115	10
