Mass spectrum: ISOPROPYL BENZOATE; EI-MS
Formula: C10H12O2
Exact mass: 164.08373
Instrument type: EI-MS
m/z	relative intensity
51	230
57	300
77	370
105	999
106	70
123	240
164	70
