Mass spectrum: 3-D1FLUORAMINO-1,2,3-TRIFLUORODIAZIRIDINE; EI-MS
Formula: CF5N3
Exact mass: 149.00124
Instrument type: EI-MS
m/z	relative intensity
19	60
20	190
28	690
31	999
33	260
45	200
50	210
52	1
64	910
69	250
83	450
97	110
