Mass spectrum: 2-PROPIONYL-10-(2-DIMETHYLAMINOPROPYL)-PHENOTHIAZINE; EI-MS
Name: PROPIOMAZINE
Formula: C20H24N2OS
Exact mass: 340.16093
Instrument type: EI-MS
m/z	relative intensity
72	999
73	39
149	169
150	1
197	44
254	29
255	49
269	5
340	29
