Mass spectrum: ISOPROPENYL ACETATE; EI-MS
Formula: C5H8O2
Exact mass: 100.05243
Instrument type: EI-MS
m/z	relative intensity
40	44
42	55
43	999
44	36
57	28
58	193
72	81
100	56
