Mass spectrum: 2-METHYLNAPHTHALENE; EI-MS
Formula: C11H10
Exact mass: 142.07825
Instrument type: EI-MS
m/z	relative intensity
40	83
41	96
42	141
43	551
44	134
45	45
50	42
51	54
52	11
54	16
55	83
56	54
57	214
58	188
59	38
60	31
61	20
62	40
63	76
64	16
65	33
67	18
68	25
69	152
70	188
71	194
72	13
73	31
74	31
75	31
76	27
77	36
81	25
82	16
83	33
84	16
85	22
86	13
87	27
88	22
89	54
91	36
95	11
96	11
97	29
98	18
99	18
101	16
102	11
105	13
111	11
113	25
114	42
115	277
116	31
121	20
126	13
127	11
128	16
129	22
135	13
138	18
139	100
140	109
141	953
142	999
143	118
