Mass spectrum: 4-BENZYLOXY-2-METHYL-2-BUTENAL; EI-MS
Formula: C12H14O2
Exact mass: 190.09938
Instrument type: EI-MS
m/z	relative intensity
27	25
29	25
39	65
41	3
51	45
53	22
55	52
63	2
65	116
77	88
79	84
82	3
83	25
84	119
89	25
91	999
92	344
99	19
105	27
107	3
132	63
145	49
160	68
161	1
172	18
