Mass spectrum: PARA IODOTOLUENE; EI-MS
Formula: C7H7I
Exact mass: 217.95924
Instrument type: EI-MS
m/z	relative intensity
38	16
39	82
41	15
50	44
51	34
61	10
62	29
63	78
64	22
65	244
74	11
89	73
90	49
91	556
92	40
127	8
128	5
217	24
218	999
219	73
