Mass spectrum: (2S,3S)-3-BENZYLOXY-4-(TERT-BUTYLDIMETHYLSILYLOXY)BUTAN-1,2-DIOL ISOPROPYLIDENE ACETAL; EI-MS
Formula: C20H34O4Si
Exact mass: 366.22264
Instrument type: EI-MS
m/z	relative intensity
43	22
56	18
58	20
59	3
69	20
72	26
75	136
89	2
101	42
103	34
105	26
117	25
131	682
132	32
133	24
143	5
145	36
161	999
162	113
163	3
175	24
182	53
219	148
261	205
