Mass spectrum: MONOCRESYL DIPHENYL PHOSPHATE; EI-MS
Formula: C19H17O4P
Exact mass: 340.08645
Instrument type: EI-MS
m/z	relative intensity
47	46
50	40
51	140
52	35
53	33
62	40
63	20
65	24
66	30
76	20
77	378
78	10
79	89
89	38
90	58
91	18
92	30
93	35
94	132
103	3
104	38
105	35
106	20
107	12
108	135
109	20
115	25
121	3
122	30
139	25
140	28
141	3
152	30
153	28
154	23
155	2
165	171
166	86
167	33
168	5
169	97
170	132
171	20
178	3
179	97
180	69
181	56
182	4
183	51
184	94
185	20
193	3
194	48
195	84
196	33
197	2
198	33
209	23
215	99
216	2
227	25
228	74
229	94
230	2
231	23
232	69
233	148
234	3
241	30
242	38
243	40
244	2
245	23
246	69
247	125
248	3
249	30
260	25
261	58
262	2
263	25
275	25
277	20
291	3
325	439
326	664
327	135
328	2
339	493
340	999
341	219
342	25
