Mass spectrum: PIPERONYL ALCOHOL; EI-MS
Name: 3,4-METHYLENEDIOXYBENZYL ALCOHOL
Formula: C8H8O3
Exact mass: 152.04734
Instrument type: EI-MS
m/z	relative intensity
26	15
27	35
29	112
30	17
31	59
37	22
38	53
39	235
40	37
41	21
42	14
43	11
50	92
51	159
52	23
53	69
55	36
61	32
62	66
63	176
64	40
65	447
66	149
67	31
74	26
75	51
76	27
77	192
78	22
79	29
81	11
91	23
93	523
94	216
95	33
105	53
121	138
122	219
123	226
124	17
135	481
136	35
149	46
150	17
151	328
152	999
153	77
