Mass spectrum: ETHYL ISOBUTYRATE; EI-MS
Formula: C6H12O2
Exact mass: 116.08373
Instrument type: EI-MS
m/z	relative intensity
27	39
29	392
30	11
41	103
42	133
43	999
44	37
45	90
57	17
70	17
71	544
72	25
73	89
78	11
88	137
89	82
101	29
116	213
117	17
