Mass spectrum: CYCLOPENTANONE OXIME; EI-MS
Formula: C5H9NO
Exact mass: 99.06841
Instrument type: EI-MS
m/z	relative intensity
27	260
28	230
41	380
54	62
55	999
67	310
82	310
99	700
