Mass spectrum: ISOBUTYL ACRYLATE; EI-MS
Formula: C7H12O2
Exact mass: 128.08373
Instrument type: EI-MS
m/z	relative intensity
27	51
28	13
29	29
41	83
42	13
43	33
55	999
56	789
57	58
69	29
70	33
73	164
85	133
86	13
87	10
98	7
113	7
