Mass spectrum: 2,4,5-TRICHLOROPHENOL; EI-MS
Formula: C6H3Cl3O
Exact mass: 195.92495
Instrument type: EI-MS
m/z	relative intensity
51	26
53	147
59	20
60	128
61	306
62	368
63	191
64	22
65	52
66	134
67	75
69	25
71	66
72	139
73	160
74	76
75	45
79	23
80	81
81	52
82	32
83	71
84	61
85	64
86	25
87	34
89	19
95	38
96	336
97	673
98	250
99	317
100	59
106	20
107	87
108	39
109	66
131	125
132	481
133	320
134	334
135	184
136	66
137	30
149	65
151	34
160	107
161	48
162	108
163	36
164	36
167	41
169	39
177	48
179	29
192	67
194	46
195	68
196	999
197	115
198	926
199	78
200	295
201	21
202	32
