Mass spectrum: TRIPROPYLENE GLYCOL MONOMETHYL ETHER; EI-MS
Formula: C10H22O4
Exact mass: 206.15181
Instrument type: EI-MS
m/z	relative intensity
31	53
41	71
42	11
43	19
45	133
47	15
57	53
58	45
59	999
60	57
72	129
73	737
74	35
85	14
87	19
99	26
103	383
104	26
117	747
118	53
130	35
132	54
161	318
162	32
206	9
207	1
