Mass spectrum: 1,4,7-TRIMETHYLINDAN; EI-MS
Formula: C12H16
Exact mass: 160.1252
Instrument type: EI-MS
m/z	relative intensity
15	30
27	82
29	18
39	71
41	25
51	51
53	24
63	33
65	32
77	43
79	14
91	44
103	14
105	38
115	94
128	109
129	91
145	999
159	20
160	201
161	25
