Mass spectrum: PROPANAL DIISOPROPYL ACETAL; EI-MS
Formula: C9H20O2
Exact mass: 160.14633
Instrument type: EI-MS
m/z	relative intensity
15	30
26	15
27	161
28	27
29	82
31	104
32	43
39	7
41	206
42	46
43	713
44	2
45	165
47	65
57	56
58	7
59	999
60	24
75	31
89	27
90	13
101	206
102	18
131	79
