Mass spectrum: SEC-BUTYLBENZENE; EI-MS
Formula: C10H14
Exact mass: 134.10955
Instrument type: EI-MS
m/z	relative intensity
27	57
29	29
39	51
41	29
50	20
51	71
52	15
53	12
63	22
65	27
77	127
78	41
79	90
91	156
92	11
102	11
103	67
104	31
105	999
106	82
115	17
117	10
119	14
134	180
135	16
