Mass spectrum: 5-METHYLTHIOPENTANENITRILE; EI-MS
Formula: C6H11NS
Exact mass: 129.06122
Instrument type: EI-MS
m/z	relative intensity
32	240
35	155
39	210
41	24
45	200
46	150
47	200
48	25
53	100
54	200
55	295
61	999
62	95
63	100
73	95
75	11
82	430
83	205
87	165
114	1
129	550
130	80
131	70
