Mass spectrum: SEC-BUTYL ALCOHOL; EI-MS
Name: 2-BUTANOL
Formula: C4H10O
Exact mass: 74.07316
Instrument type: EI-MS
m/z	relative intensity
15	27
19	20
26	23
27	131
29	109
31	166
39	34
41	105
42	14
43	106
44	84
45	999
46	23
55	22
57	28
59	218
73	12
