Mass spectrum: DIETHYL MALEATE; EI-MS
Formula: C8H12O4
Exact mass: 172.07356
Instrument type: EI-MS
m/z	relative intensity
26	41
27	79
28	24
29	114
31	22
32	10
43	21
45	54
53	21
54	83
55	47
71	37
72	15
82	65
99	999
100	104
125	11
126	171
127	333
128	83
143	37
