Mass spectrum: 3,3-DIMETHOXYPROPIOPHENONE; EI-MS
Formula: C11H14O3
Exact mass: 194.09429
Instrument type: EI-MS
m/z	relative intensity
43	21
47	73
50	30
51	101
58	76
59	12
74	13
75	639
76	40
77	320
78	33
85	108
91	19
105	999
106	83
133	16
147	35
162	35
163	36
164	10
179	167
180	17
194	51
