Mass spectrum: ETHYL 5,9,13-TRIMETHYL-(2E,4E,8Z,12E)-2,4,8,12-TETRADECATETRAENOATE; EI-MS
Formula: C19H30O2
Exact mass: 290.22458
Instrument type: EI-MS
m/z	relative intensity
27	27
28	383
29	98
32	11
39	31
41	283
43	47
53	5
54	5
55	64
56	5
57	2
65	16
67	64
68	55
69	999
70	55
71	13
77	31
79	8
80	109
81	572
82	47
88	2
91	31
92	5
93	64
94	1
95	77
96	5
97	16
105	3
107	41
108	28
109	52
110	1
111	28
119	16
121	23
123	3
125	28
133	31
135	16
136	2
137	63
138	5
139	109
140	1
147	33
148	5
149	5
151	3
152	5
154	220
155	31
161	2
166	17
167	15
169	8
175	1
176	7
177	20
178	10
179	2
180	9
197	16
202	11
203	1
205	20
207	8
208	8
216	1
217	14
219	10
221	17
245	1
247	13
290	28
291	8
