Mass spectrum: 1-TRIDECANOL; EI-MS
Formula: C13H28O
Exact mass: 200.21402
Instrument type: EI-MS
m/z	relative intensity
39	41
41	535
42	221
43	854
45	15
53	25
54	107
55	999
56	716
57	740
58	37
67	131
68	348
69	993
70	794
71	310
72	23
73	7
81	48
82	404
83	382
84	508
95	17
96	120
97	688
98	288
99	42
109	15
110	68
111	344
112	196
113	32
124	32
125	166
126	121
129	9
139	36
140	40
154	164
155	25
182	45
