Mass spectrum: ERGOSTERIN; EI-MS
Formula: C28H44O
Exact mass: 396.33922
Instrument type: EI-MS
m/z	relative intensity
27	20
29	24
39	15
41	97
43	177
53	19
55	176
57	45
67	61
69	197
70	23
71	16
77	26
79	49
81	116
82	18
83	73
91	64
92	10
93	54
94	10
95	55
97	20
105	63
106	11
107	62
108	11
109	61
115	27
116	13
117	36
118	21
119	70
120	11
121	24
123	16
125	33
127	10
128	45
129	49
130	19
131	58
132	17
133	43
134	11
135	16
137	10
141	38
142	30
143	113
144	36
145	91
146	20
147	37
153	13
154	11
155	40
156	23
157	94
158	49
159	89
160	17
161	17
165	14
167	17
168	12
169	42
170	22
171	65
172	17
173	24
175	49
176	16
177	14
181	20
182	12
183	44
184	16
185	49
186	21
187	15
195	22
196	13
197	60
198	21
199	48
200	11
201	10
209	20
210	12
211	93
212	24
213	40
217	21
223	15
224	12
225	26
226	21
227	30
229	15
237	29
238	14
239	24
251	41
252	15
253	154
254	34
255	18
269	21
270	13
271	85
272	19
337	185
338	64
339	12
363	450
364	139
365	22
376	14
377	11
378	31
379	14
380	12
381	18
394	24
395	13
396	999
397	313
398	54
