Mass spectrum: METHYL-2,6,7,9-TETRA-O-METHYL-5-N-METHYLACETAMIDE-SIALITOL-4,8-DIACETATE; EI-MS
Formula: C21H37NO11
Exact mass: 479.23666
Instrument type: EI-MS
m/z	relative intensity
184	420
200	75
201	10
145	335
203	70
204	10
212	25
214	40
215	165
216	65
240	10
244	30
246	10
254	10
256	10
258	195
259	40
260	30
262	100
263	10
271	15
272	20
273	10
274	999
275	140
276	20
286	20
287	10
288	20
290	40
302	10
314	10
316	10
318	440
319	70
320	10
331	15
333	95
334	15
346	20
360	20
362	80
376	10
391	60
393	40
405	20
407	10
420	10
434	25
219	20
229	50
232	630
233	80
