Mass spectrum: PARA-NITROBENZONITRILE; EI-MS
Formula: C7H4N2O2
Exact mass: 148.02728
Instrument type: EI-MS
m/z	relative intensity
27	39
30	330
37	31
38	30
39	37
49	18
50	161
51	228
52	52
62	22
63	52
64	31
73	14
74	61
75	386
76	180
90	230
91	14
98	18
102	999
103	77
118	77
132	16
148	489
149	43
