Mass spectrum: (E)-3,3-DIMETHYL-1-TRIMETHYLSILYL-1-BUTENE; EI-MS
Formula: C9H20Si
Exact mass: 156.13343
Instrument type: EI-MS
m/z	relative intensity
43	19
45	36
53	10
55	22
57	26
58	14
59	152
60	17
73	999
74	68
75	36
82	57
83	30
85	77
97	11
99	207
113	40
125	12
141	203
142	31
156	23
