Mass spectrum: 2-(TRIMETHYLSILYLMETHYL)BENZYL ALCOHOL; EI-MS
Formula: C11H18OSi
Exact mass: 194.11269
Instrument type: EI-MS
m/z	relative intensity
43	31
44	13
45	89
47	36
51	14
59	14
61	20
65	16
73	370
74	34
75	280
76	23
77	44
78	47
91	27
103	43
104	999
105	104
119	11
161	18
179	13
194	1
