Mass spectrum: 1,3-DIAMINOCYCLOHEXANE; EI-MS
Formula: C6H14N2
Exact mass: 114.1157
Instrument type: EI-MS
m/z	relative intensity
28	150
43	999
44	127
56	28
69	193
71	245
81	120
97	34
114	30
