Mass spectrum: METHYL TETRA-O-METHYL-BETA-D-GLUCOPYRANOSIDE; EI-MS
Formula: C11H22O6
Exact mass: 250.14164
Instrument type: EI-MS
m/z	relative intensity
27	15
29	38
31	18
33	1
41	48
43	22
45	217
47	1
55	16
57	13
59	32
71	13
72	19
73	129
74	26
75	71
76	24
85	23
88	999
89	9
101	517
102	50
127	18
131	1
145	12
149	259
150	17
176	51
