Mass spectrum: 2-HYDROXYISOFLAVANONE; EI-MS
Name: 2-HYDROXY-3-PHENYLCHROMAN-4-ONE
Formula: C15H12O3
Exact mass: 240.07864
Instrument type: EI-MS
m/z	relative intensity
27	23
28	241
32	34
38	3
39	92
41	24
50	77
51	7
52	34
62	35
63	140
64	18
65	54
74	49
75	49
76	9
77	47
82.5	23
87	20
89	4
91	28
92	488
93	46
102	14
111	64
120	530
121	259
122	2
139	22
149	77
164	23
165	9
194	22
221	999
222	916
223	127
