Mass spectrum: 3-METHYL-6-NITRO-1,2,3,4-TETRAHYDRO-GAMMA-CARBOLINE; EI-MS
Formula: C12H13N3O2
Exact mass: 231.10078
Instrument type: EI-MS
m/z	relative intensity
42	54
43	32
44	82
89	2
91	26
92	32
115	109
142	35
143	32
158	33
172	13
184	6
188	999
189	67
230	51
231	200
