Mass spectrum: BENZANTHRONE; EI-MS
Formula: C17H10O
Exact mass: 230.07316
Instrument type: EI-MS
m/z	relative intensity
43	41
44	41
50	40
57	41
75	41
76	41
87	41
88	8
100	120
101	175
115	41
150	4
151	40
152	61
180	72
200	16
201	124
202	359
203	64
208	9
230	999
231	188
