Mass spectrum: 4-PROPYLPYRIDINE; EI-MS
Formula: C8H11N
Exact mass: 121.08915
Instrument type: EI-MS
m/z	relative intensity
29	19
39	65
40	11
41	80
43	27
44	31
51	222
52	131
53	11
64	31
65	343
66	98
77	83
78	14
79	116
91	23
92	564
93	999
105	12
106	414
107	34
120	128
121	888
122	81
