Mass spectrum: 10-UNDECENOIC ACID METHYL ESTER; EI-MS
Formula: C12H22O2
Exact mass: 198.16198
Instrument type: EI-MS
m/z	relative intensity
40	10
41	329
42	58
43	88
44	423
45	23
46	58
52	1
54	142
55	999
56	120
57	9
59	291
65	15
66	13
67	19
68	161
69	326
70	46
71	4
72	16
73	73
74	931
75	8
79	41
80	29
81	136
82	22
83	269
84	239
85	48
87	39
88	42
93	24
94	35
95	9
96	332
97	184
98	160
99	3
100	11
101	60
106	11
107	3
108	13
109	57
110	96
111	6
112	16
113	38
114	51
115	5
116	11
119	39
122	69
123	14
124	345
125	90
127	25
128	3
129	18
133	13
137	94
138	5
141	24
147	11
148	55
149	13
150	16
151	13
155	19
165	2
166	118
167	69
198	42
