Mass spectrum: ETHYL 4-CYANOBENZOATE; EI-MS
Formula: C10H9NO2
Exact mass: 175.06333
Instrument type: EI-MS
m/z	relative intensity
26	17
27	88
29	98
38	1
39	13
40	10
43	15
44	2
45	179
50	76
51	99
52	2
74	25
75	137
76	91
101	2
102	432
103	105
104	12
130	999
131	118
132	10
147	430
148	5
160	10
174	35
175	300
176	37
