Mass spectrum: ISOBUTYL ISOBUTYRATE; EI-MS
Formula: C8H16O2
Exact mass: 144.11503
Instrument type: EI-MS
m/z	relative intensity
15	15
26	14
27	217
28	40
29	198
31	16
39	159
40	24
41	454
42	89
43	917
44	32
55	43
56	457
57	385
58	14
70	22
71	999
72	47
73	45
88	17
89	245
90	11
101	64
