Mass spectrum: BENZYLACETONE; EI-MS
Name: 4-PHENYL-2-BUTANONE
Formula: C10H12O
Exact mass: 148.08882
Instrument type: EI-MS
m/z	relative intensity
15	52
27	85
38	14
39	108
41	20
42	20
43	999
44	18
50	69
51	178
52	33
53	18
55	29
62	14
63	66
64	12
65	116
74	17
75	15
76	15
77	213
78	137
79	123
89	24
91	556
92	40
102	14
103	99
104	105
105	675
106	75
115	28
129	16
133	107
147	21
148	562
149	59
