Mass spectrum: 2-NONANONE; EI-MS
Formula: C9H18O
Exact mass: 142.13577
Instrument type: EI-MS
m/z	relative intensity
29	13
41	25
43	361
55	3
56	25
57	168
58	999
59	25
60	10
67	12
69	17
71	19
72	20
82	46
83	11
85	5
86	42
87	12
99	22
100	2
113	13
127	30
142	103
143	13
