Mass spectrum: 2-(3-HYDROXYBUTOXY)-N-(2-(ETHYLAMINO)ETHYL)-3-PYRIDINECARBOXAMIDE; EI-MS
Formula: C14H23N3O3
Exact mass: 281.17394
Instrument type: EI-MS
m/z	relative intensity
44	36
56	62
58	999
59	25
71	780
72	80
86	52
95	315
96	367
97	23
122	194
123	15
139	63
140	8
149	42
151	11
152	22
153	11
165	18
176	42
192	9
194	28
195	160
196	6
211	171
212	17
221	4
224	61
