Mass spectrum: 1-ISOBUTYL-9-METHYLBICYCLO(3.2.2)NONA-3,6-DIEN-2-ONE; EI-MS
Formula: C14H20O
Exact mass: 204.15142
Instrument type: EI-MS
m/z	relative intensity
55	108
57	125
97	65
106	6
107	65
120	151
133	86
134	13
143	73
145	86
147	999
148	72
149	164
160	56
161	362
162	8
163	65
176	64
189	250
204	50
205	181
206	121
