Mass spectrum: HEXAFLUOROISOPROPYL 3BETA-TRIFLUOROACETOXY-5ALPHA-CHOLAN-24-OATE; EI-MS
Formula: C29H39F9O4
Exact mass: 622.27046
Instrument type: EI-MS
m/z	relative intensity
39	21
40	14
41	199
42	30
43	133
44	26
45	24
47	18
49	10
50	15
51	34
53	73
54	42
55	657
56	52
57	69
59	40
64	17
65	33
66	23
67	456
68	353
69	296
70	23
71	18
73	19
75	18
76	14
77	91
78	45
79	234
80	111
81	507
82	166
83	176
84	13
85	87
89	11
91	228
92	66
93	450
94	188
95	551
96	66
97	85
99	10
101	18
103	10
104	13
105	198
106	140
107	531
108	276
109	301
110	45
111	43
113	10
115	41
117	38
118	20
119	140
120	85
121	287
122	177
123	330
124	43
125	12
128	27
129	23
131	44
132	20
133	133
134	51
135	186
136	53
137	67
138	16
139	13
141	20
145	54
146	27
147	300
148	95
149	166
150	23
151	23
155	19
157	11
159	22
160	50
161	117
162	49
163	56
173	39
174	20
175	43
176	17
177	14
181	13
187	33
188	30
189	25
191	10
195	15
201	73
202	18
203	25
207	30
208	17
209	41
210	32
211	17
215	218
216	165
217	240
218	37
219	12
221	17
229	21
230	145
231	35
233	11
235	21
237	16
238	15
257	28
261	106
262	73
263	13
274	16
277	12
281	15
287	11
288	30
290	11
293	17
301	34
302	85
303	20
315	148
316	39
329	999
330	614
331	128
332	12
344	388
345	116
346	31
399	13
400	37
401	47
413	21
437	88
438	24
454	15
455	25
493	63
494	12
508	40
509	39
607	54
608	13
622	278
623	92
