Mass spectrum: HEPTANOL; EI-MS
Formula: C7H16O
Exact mass: 116.12012
Instrument type: EI-MS
m/z	relative intensity
15	14
26	19
27	333
28	73
29	346
30	11
31	408
39	200
40	12
41	799
42	489
43	705
44	39
45	34
51	11
53	39
54	41
55	725
56	937
57	236
67	21
68	141
69	498
70	999
71	45
73	20
83	52
98	32
