Mass spectrum: 2-ADAMANTYLAMINE; EI-MS
Name: 2-AMINOADAMANTANE
Formula: C10H17N
Exact mass: 151.1361
Instrument type: EI-MS
m/z	relative intensity
44	78
56	456
67	214
70	127
77	121
78	157
79	433
80	289
81	74
91	273
92	708
93	363
94	111
105	110
106	91
108	160
119	149
134	766
135	94
150	999
151	914
152	77
