Mass spectrum: TRIETHYL CITRATE; EI-MS
Formula: C12H20O7
Exact mass: 276.1209
Instrument type: EI-MS
m/z	relative intensity
45	32
55	37
59	41
69	46
84	36
87	64
88	37
111	7
115	292
129	55
130	39
139	3
157	999
158	65
203	337
204	3
277	34
