Mass spectrum: PHENYL ACETIC ACID ETHYL ESTER; EI-MS
Formula: C10H12O2
Exact mass: 164.08373
Instrument type: EI-MS
m/z	relative intensity
15	12
27	26
28	25
29	183
39	47
41	15
44	74
455	13
50	13
51	34
59	13
63	28
65	101
77	36
78	10
89	29
90	22
91	999
92	105
105	64
106	21
118	11
119	23
149	57
164	148
165	17
