Mass spectrum: TRANS-ISOFLAVAN-4-OL; EI-MS
Name: 4-HYDROXY-TRANS-3-PHENYLCHROMAN
Formula: C15H14O2
Exact mass: 226.09938
Instrument type: EI-MS
m/z	relative intensity
104	620
105	400
106	30
121	3
122	540
123	60
131	120
207	33
208	999
209	160
210	20
226	31
227	60
