Mass spectrum: PROPYL BENZOATE; EI-MS
Formula: C10H12O2
Exact mass: 164.08373
Instrument type: EI-MS
m/z	relative intensity
40	20
42	32
43	20
50	43
51	153
52	11
59	20
75	10
76	22
77	425
78	37
79	26
105	999
106	89
122	267
123	427
124	32
135	14
164	15
