Mass spectrum: 2,6-DICHLOROPHENYL ACETATE; EI-MS
Formula: C8H6Cl2O2
Exact mass: 203.97448
Instrument type: EI-MS
m/z	relative intensity
42	39
43	888
61	52
62	8
63	197
73	125
74	39
75	6
97	46
98	59
99	46
126	7
133	118
135	72
162	999
163	7
164	677
165	52
166	118
204	31
206	203
