Mass spectrum: ISOPROPYL BUTYRATE; EI-MS
Formula: C7H14O2
Exact mass: 130.09938
Instrument type: EI-MS
m/z	relative intensity
27	24
28	17
41	80
42	87
43	999
44	35
45	21
59	188
60	191
61	14
70	10
71	969
72	49
73	83
87	10
88	201
89	441
90	24
102	52
115	94
130	10
