Mass spectrum: CHLORMEZANONE TRANCOPAL; EI-MS
Formula: C11H12ClNO3S
Exact mass: 273.02264
Instrument type: EI-MS
m/z	relative intensity
25	9
26	40
27	81
28	31
29	13
30	10
32	38
34	1
35	3
36	26
37	5
38	1
39	44
40	11
41	65
42	62
43	23
44	41
45	10
46	1
47	18
48	40
49	8
50	6
51	54
52	9
53	2
54	0
55	74
56	201
57	32
58	2
59	13
60	3
61	14
62	3
63	69
64	29
65	12
66	0
67	2
68	14
69	240
70	2
71	10
72	11
73	23
74	0
75	122
76	45
77	70
78	1
79	1
82	1
83	2
84	1
85	16
86	14
87	14
88	0
89	115
90	34
91	52
92	0
97	150
98	580
99	45
100	1
101	11
102	51
103	15
104	0
105	2
110	4
111	200
112	7
113	60
114	22
115	13
116	0
117	153
118	95
119	15
120	0
121	1
123	13
124	11
125	17
126	20
127	61
128	9
137	6
138	29
139	31
140	15
141	0
142	3
143	1
144	2
145	0
146	11
149	3
150	5
151	2
152	999
153	319
154	421
155	2
156	95
157	9
166	7
167	0
168	4
174	277
175	33
176	0
178	1
180	16
181	8
182	1
194	3
208	137
209	69
210	6
211	22
212	2
274	4
