Mass spectrum: 4-NITROSOMETHYL-6-TRIFLUOROMETHYL-1,2-DIHYDROPYRIMIDIN-2-ONE; EI-MS
Formula: C6H4F3N3O2
Exact mass: 207.02556
Instrument type: EI-MS
m/z	relative intensity
65	710
66	730
67	530
68	25
69	715
70	99
75	111
76	6
77	148
79	221
92	148
93	36
95	118
100	111
101	43
102	8
108	123
120	308
136	195
138	11
143	212
149	114
150	148
163	10
164	203
176	9
178	203
184	8
188	136
189	96
207	999
208	157
