Mass spectrum: 2,4-DINITROTOLUENE; EI-MS
Formula: C7H6N2O4
Exact mass: 182.03276
Instrument type: EI-MS
m/z	relative intensity
40	30
46	22
50	101
51	17
52	145
53	41
61	39
62	14
63	550
64	171
65	52
66	4
74	41
75	48
76	30
77	13
78	194
79	63
80	47
86	2
87	19
89	633
90	221
91	7
92	18
105	46
106	48
107	5
108	22
118	89
119	195
148	2
165	999
166	89
182	78
