Mass spectrum: 1,3,7-TRIMETHYLXANTHINE; EI-MS
Name: CAFFEINE ANHYDRATE
Formula: C8H10N4O2
Exact mass: 194.08038
Instrument type: EI-MS
m/z	relative intensity
55	66
67	28
82	60
109	348
110	45
136	29
137	90
138	17
165	46
193	102
194	999
195	102
