Mass spectrum: TETRAPROPYLAMMONIUM IODIDE; EI-MS
Formula: C12H28IN
Exact mass: 313.12664
Instrument type: EI-MS
m/z	relative intensity
43	482
70	15
72	179
86	91
98	3
100	9
114	999
115	120
127	25
128	15
142	30
143	86
144	17
170	175
186	161
254	0
312	1
