Mass spectrum: BICYCLO(5.3.0)DEC-7-EN-9-ONE; EI-MS
Formula: C10H14O
Exact mass: 150.10447
Instrument type: EI-MS
m/z	relative intensity
41	24
43	67
44	21
55	45
57	67
77	46
79	103
81	43
91	60
92	19
93	43
95	67
96	271
97	21
99	38
105	21
107	118
108	213
109	119
110	28
117	19
121	393
122	224
123	23
135	241
136	24
149	454
150	999
151	114
