Mass spectrum: 1,2,3-PROPANETRICARBOXYLIC ACID TRIS(TRIMETHYLSILYL) ESTER; EI-MS
Name: TRI(TRIMETHYLSILYL) 1,2,3-PROPANETRICARBOXYLATE
Formula: C15H32O6Si3
Exact mass: 392.15067
Instrument type: EI-MS
m/z	relative intensity
43	81
45	308
47	88
49	9
55	207
69	150
73	999
74	9
75	421
77	716
78	69
93	7
95	88
133	69
141	69
147	83
148	100
149	100
184	69
185	24
215	69
217	188
377	276
378	69
