Mass spectrum: 2,3-DIMETHYLBUTANE; EI-MS
Formula: C6H14
Exact mass: 86.10955
Instrument type: EI-MS
m/z	relative intensity
15	10
26	8
27	131
28	4
29	62
32	10
38	8
39	10
40	17
41	262
42	942
43	999
44	33
50	6
51	9
53	2
55	48
56	9
57	11
69	1
70	11
71	213
72	14
85	1
86	81
87	7
