Mass spectrum: DI(2-ETHYL HEXYL)ISOPHTHALATE; EI-MS
Formula: C24H38O4
Exact mass: 390.27701
Instrument type: EI-MS
m/z	relative intensity
50	11
53	16
54	188
55	131
56	352
57	16
65	60
67	2
68	19
69	94
70	845
71	24
72	11
75	10
76	75
77	2
79	11
81	10
82	45
83	21
84	128
85	11
93	14
97	2
104	105
105	23
111	10
112	999
113	271
114	20
121	90
122	2
129	11
132	16
149	417
150	5
167	472
168	44
180	13
261	48
262	90
263	13
279	259
280	42
