Mass spectrum: 1-METHANESULFONYL-5-FLUOROURACIL; EI-MS
Formula: C5H5FN2O4S
Exact mass: 207.99541
Instrument type: EI-MS
m/z	relative intensity
29	130
41	120
42	10
43	0
57	20
58	190
59	30
60	0
63	120
64	10
70	50
73	1
74	50
79	400
80	20
81	1
86	70
87	280
88	70
100	1
114	100
115	10
130	999
131	1
143	60
144	50
208	410
209	60
