Mass spectrum: 3-METHYL-1-PENTANOL; EI-MS
Formula: C6H14O
Exact mass: 102.10447
Instrument type: EI-MS
m/z	relative intensity
37	3
39	176
41	685
42	37
43	620
44	51
45	97
46	32
50	6
51	14
52	1
53	37
55	496
56	999
57	262
58	4
59	21
63	6
67	13
69	439
70	25
71	36
72	3
73	9
74	7
83	8
84	110
85	10
