Mass spectrum: HEXYL BENZOATE; EI-MS
Formula: C13H18O2
Exact mass: 206.13068
Instrument type: EI-MS
m/z	relative intensity
27	90
28	23
29	90
39	56
40	10
41	147
42	112
43	135
50	40
51	156
52	13
53	12
54	18
55	140
56	282
57	22
67	11
69	100
70	10
74	11
75	12
76	31
77	498
78	42
79	78
83	19
84	200
85	19
105	999
106	86
112	162
113	938
114	73
206	27
