Mass spectrum: BENZONITRILE; EI-MS
Formula: C7H5N
Exact mass: 103.0422
Instrument type: EI-MS
m/z	relative intensity
39	96
50	165
51	40
52	139
53	36
56	43
63	61
64	23
75	38
76	757
77	234
78	10
102	54
103	999
104	301
