Mass spectrum: CYCLOHEXYLAMINE; EI-MS
Formula: C6H13N
Exact mass: 99.1048
Instrument type: EI-MS
m/z	relative intensity
15	12
27	44
28	70
29	26
30	91
39	38
41	39
42	44
43	203
53	13
54	15
55	20
56	999
57	49
67	14
70	64
98	15
99	136
100	10
