Mass spectrum: METHYL ALPHA-ACETYLDIMETHYLACRYLATE; EI-MS
Formula: C8H12O3
Exact mass: 156.07864
Instrument type: EI-MS
m/z	relative intensity
41	172
42	27
43	999
45	16
50	17
51	28
52	16
53	77
54	64
55	148
56	14
59	126
66	39
67	428
68	85
69	17
73	129
81	28
82	214
83	525
84	36
95	36
96	882
97	72
98	13
99	51
109	460
110	30
114	22
123	16
124	494
125	295
126	20
141	124
156	319
157	27
