Mass spectrum: DIMETHYL PHTHALATE; EI-MS
Formula: C10H10O4
Exact mass: 194.05791
Instrument type: EI-MS
m/z	relative intensity
50	60
51	17
63	10
64	14
74	23
75	21
76	89
77	164
78	11
92	75
104	49
105	25
120	17
133	30
135	59
163	999
164	99
194	81
