Mass spectrum: DI-ISO-PROPYL PHTHALATE; EI-MS
Formula: C14H18O4
Exact mass: 250.12051
Instrument type: EI-MS
m/z	relative intensity
27	80
39	59
41	111
42	24
43	185
45	22
50	46
59	48
65	73
76	92
77	30
93	49
104	79
105	74
121	38
122	71
149	999
150	120
167	41
191	46
192	55
209	70
