Mass spectrum: PARA-PROPYLANISOLE; EI-MS
Formula: C10H14O
Exact mass: 150.10447
Instrument type: EI-MS
m/z	relative intensity
18	121
43	243
56	100
77	8
91	90
121	999
122	90
150	171
