Mass spectrum: 4-NITROANISOL; EI-MS
Formula: C7H7NO3
Exact mass: 153.04259
Instrument type: EI-MS
m/z	relative intensity
15	25
16	11
17	47
18	213
37	21
38	77
39	38
40	8
41	67
42	7
43	46
44	14
46	24
49	8
50	124
51	76
52	51
53	36
54	16
55	10
56	4
57	8
58	15
61	23
62	60
63	240
64	271
65	42
66	12
67	11
68	4
69	39
70	3
71	5
73	11
74	59
75	51
76	60
77	461
78	46
79	26
80	58
81	7
82	6
91	7
92	506
93	35
94	4
95	164
96	12
97	5
106	10
107	109
108	103
109	9
119	9
122	8
123	607
124	49
125	6
137	70
138	6
153	999
154	85
155	10
