Mass spectrum: P-METHOXYPHENOL; EI-MS
Name: 4-METHOXYPHENOL
Formula: C7H8O2
Exact mass: 124.05243
Instrument type: EI-MS
m/z	relative intensity
44	43
50	23
51	33
52	50
53	146
54	56
55	15
62	24
63	28
64	14
65	46
80	18
81	315
82	34
93	19
95	21
108	56
109	999
110	70
123	33
124	956
125	67
