Mass spectrum: P-TOLUENESULFONAMIDE; EI-MS
Formula: C7H9NO2S
Exact mass: 171.0354
Instrument type: EI-MS
m/z	relative intensity
50	36
51	66
52	24
53	19
61	30
62	96
63	26
65	275
66	20
77	64
78	22
79	32
89	115
90	366
91	999
92	68
105	19
106	273
107	193
108	104
109	17
136	15
137	81
139	51
154	51
155	288
156	24
157	15
171	496
172	49
173	24
