Mass spectrum: PENTYL BUTYRATE; EI-MS
Formula: C9H18O2
Exact mass: 158.13068
Instrument type: EI-MS
m/z	relative intensity
41	46
42	238
43	536
44	17
55	199
56	13
57	13
60	93
61	30
69	66
70	894
71	999
72	43
73	56
85	20
86	27
87	13
88	811
89	40
101	56
102	10
115	27
131	20
