Mass spectrum: TRANS-2-HEXENYL ACETATE; EI-MS
Formula: C8H14O2
Exact mass: 142.09938
Instrument type: EI-MS
m/z	relative intensity
15	46
27	123
28	23
29	79
39	132
40	18
41	198
42	36
43	999
44	31
51	13
53	51
54	76
55	120
56	49
57	118
58	15
61	18
67	258
68	12
71	50
72	15
81	25
82	188
83	44
99	37
100	102
