Mass spectrum: 3,3',4',5,7-PENTAACETOXYFLAVONE; EI-MS
Name: QUERCETIN PENTAACETATE
Formula: C25H20O12
Exact mass: 512.09548
Instrument type: EI-MS
m/z	relative intensity
14	41
15	9
18	9
28	3
29	6
40	25
41	119
42	34
43	9
69	6
93	6
109	1
121	9
122	6
123	6
135	1
136	22
151	13
152	31
217	3
228	13
229	13
253	9
254	4
255	6
267	13
272	9
273	18
274	47
285	13
286	38
287	1
301	219
302	999
303	175
304	3
316	53
317	38
318	6
326	1
327	6
328	25
343	59
344	97
345	203
346	38
357	22
358	3
370	16
385	25
386	844
387	18
388	38
399	9
400	16
412	1
428	469
429	119
430	25
442	1
470	375
471	125
472	31
512	3
513	9
