Mass spectrum: 3,5-DINITRO-N-(3-(1,2,3,4-TETRAHYDRO-9-CARBAZOLYL)PROPYL)BENZAMIDE; EI-MS
Name: 9-(3-(3,5-DINITROBENZAMIDO)PROPYL)-1,2,3,4-TETRAHYDROCARBAZOLE
Formula: C22H22N4O5
Exact mass: 422.15902
Instrument type: EI-MS
m/z	relative intensity
75	51
143	94
156	90
157	11
167	59
168	89
169	40
170	19
171	59
182	48
183	54
184	30
185	98
211	54
252	17
394	3
405	52
422	999
