Mass spectrum: 2-METHYLCYCLOPENTANONE; EI-MS
Formula: C6H10O
Exact mass: 98.07316
Instrument type: EI-MS
m/z	relative intensity
28	96
29	35
41	219
42	999
43	136
54	43
55	321
56	15
69	383
70	230
80	59
83	13
97	34
98	593
99	41
