Mass spectrum: ISOBUTYL DECANOATE; EI-MS
Formula: C14H28O2
Exact mass: 228.20893
Instrument type: EI-MS
m/z	relative intensity
27	113
29	261
31	14
39	83
41	479
42	101
43	398
44	10
53	16
54	17
55	211
56	999
57	823
58	31
60	224
61	62
67	23
68	22
69	98
70	26
71	183
73	151
74	17
81	27
83	49
84	31
85	84
86	10
87	46
95	27
97	22
98	26
101	18
110	11
111	12
112	14
115	20
116	57
117	11
129	91
143	13
155	497
156	50
172	90
173	282
174	26
