Mass spectrum: ANISOLE; EI-MS
Name: METHOXYBENZENE
Formula: C7H8O
Exact mass: 108.05751
Instrument type: EI-MS
m/z	relative intensity
15	13
27	19
28	18
37	18
38	50
39	220
50	67
51	125
52	31
53	12
62	19
63	64
64	37
65	567
66	36
74	24
77	193
78	668
79	137
80	13
92	14
93	150
94	13
107	26
108	999
109	75
