Mass spectrum: 3-PHENYL-1-PROPANOL; EI-MS
Formula: C9H12O
Exact mass: 136.08882
Instrument type: EI-MS
m/z	relative intensity
27	87
28	38
29	26
31	78
38	18
39	137
40	12
41	42
43	15
44	18
50	58
51	155
52	43
53	23
57	20
58	16
62	20
63	69
64	18
65	192
66	17
74	17
75	16
76	16
77	203
78	129
79	137
80	11
89	40
90	26
91	999
92	595
93	46
102	18
103	111
104	45
105	184
106	16
107	14
115	48
116	42
117	737
118	705
119	68
136	404
137	43
