Mass spectrum: SULPYRINE; EI-MS
Formula: C13H16N3NaO4S
Exact mass: 333.07592
Instrument type: EI-MS
m/z	relative intensity
218	220
217	780
215	520
123	720
119	450
98	360
97	370
96	220
91	370
83	650
77	420
68	120
65	200
64	510
57	400
56	999
54	220
51	270
48	170
44	100
42	510
41	200
