Mass spectrum: 1-PROPANOL; EI-MS
Name: PROPYL ALCOHOL
Formula: C3H8O
Exact mass: 60.05751
Instrument type: EI-MS
m/z	relative intensity
15	13
19	10
26	21
27	102
28	54
29	101
30	15
31	999
32	22
33	11
39	32
41	73
42	133
43	43
45	13
55	13
57	29
59	121
60	43
