Mass spectrum: 1,4,7,10-TETRAOXACYCLODODECANE; EI-MS
Name: 12-CROWN-4
Formula: C8H16O4
Exact mass: 176.10486
Instrument type: EI-MS
m/z	relative intensity
30	192
31	905
32	25
33	24
40	11
41	172
42	715
46	222
51	20
54	12
55	14
56	98
57	637
58	905
59	838
60	56
61	99
62	18
63	11
69	32
70	245
71	183
72	912
73	999
74	166
75	319
76	16
85	15
86	201
87	940
88	535
90	81
91	11
92	21
99	27
100	29
101	222
102	148
103	125
104	86
105	18
107	15
113	10
114	15
115	25
117	125
118	17
119	37
128	15
132	15
133	331
134	35
175	11
177	113
