Mass spectrum: ETHYL BENZOATE; EI-MS
Formula: C9H10O2
Exact mass: 150.06808
Instrument type: EI-MS
m/z	relative intensity
18	32
26	17
27	48
28	61
29	55
35	30
36	137
37	1
38	49
39	16
44	13
45	2
50	74
51	178
69	13
74	3
75	19
76	28
77	429
78	4
105	999
106	91
122	285
123	2
135	13
149	16
150	240
151	22
