Mass spectrum: 5,7-DIMETHYL-4'-HYDROXY-3'-METHOXYFLAVANONE; EI-MS
Name: 2-(4-HYDROXY-3-METHOXYPHENYL)-5,7-DIMETHYLCHROMAN-4-ONE
Formula: C18H18O4
Exact mass: 298.12051
Instrument type: EI-MS
m/z	relative intensity
31	42
38	27
50	28
64	4
76	117
77	28
90	171
91	3
106	76
118	48
119	65
123	3
134	200
136	725
137	69
147	16
148	999
149	696
150	60
160	6
161	221
174	35
280	20
281	2
297	56
298	737
299	129
