Mass spectrum: ORTHO-TOLUIDINE; EI-MS
Name: ORTHO-AMINOTOLUENE
Formula: C7H9N
Exact mass: 107.0735
Instrument type: EI-MS
m/z	relative intensity
27	30
28	43
30	22
38	21
39	68
40	13
41	21
42	15
50	32
51	67
52	60
525	21
53	66
535	34
54	22
63	29
64	15
65	29
66	15
77	161
78	57
79	139
80	39
89	60
90	52
91	33
104	28
105	20
106	999
107	854
108	62
