Mass spectrum: LYSERGIC ACID ETHYLAMIDE; EI-MS
Formula: C18H21N3O
Exact mass: 295.16846
Instrument type: EI-MS
m/z	relative intensity
55	40
56	30
57	70
58	1
77	30
78	10
89	30
90	0
110	60
111	20
112	100
113	0
114	40
127	70
128	20
150	0
151	70
152	90
153	70
154	2
155	50
165	40
166	30
167	2
168	50
169	10
177	20
178	1
179	120
180	280
181	390
182	1
183	20
190	10
191	50
192	2
193	80
194	60
195	60
196	4
197	50
205	110
206	80
207	2
208	120
209	50
219	30
220	1
221	510
222	210
223	320
224	1
237	60
238	10
252	80
253	0
295	999
296	190
297	20
