Mass spectrum: BUTYRIC ACID ISOBUTYL ESTER; EI-MS
Formula: C8H16O2
Exact mass: 144.11503
Instrument type: EI-MS
m/z	relative intensity
27	10
29	37
41	76
42	15
43	298
44	13
55	16
56	495
57	208
58	12
60	57
70	17
71	999
72	47
73	37
88	42
89	179
90	10
101	71
114	23
116	17
