Mass spectrum: PROPIOPHENONE; EI-MS
Name: ETHYL PHENYL KETONE
Formula: C9H10O
Exact mass: 134.07316
Instrument type: EI-MS
m/z	relative intensity
27	45
28	12
29	35
38	10
39	21
50	59
51	187
52	14
55	10
57	10
74	17
75	13
77	499
78	41
105	999
106	80
133	11
134	208
135	21
