Mass spectrum: 3-TERT-BUTYLMERCAPTO-5-PICOLINE; EI-MS
Formula: C10H15NS
Exact mass: 181.09252
Instrument type: EI-MS
m/z	relative intensity
29	100
39	100
41	170
45	5
53	120
57	430
81	80
97	1
125	999
126	110
181	130
182	18
