Mass spectrum: ISOPENTYL ISOVALERATE; EI-MS
Name: 3-METHYLBUTANOIC ACID ISOPENTYL ESTER
Formula: C10H20O2
Exact mass: 172.14633
Instrument type: EI-MS
m/z	relative intensity
15	13
27	99
28	22
29	143
39	72
40	11
41	226
42	108
43	385
44	11
45	16
53	11
55	224
56	32
57	339
58	14
59	18
60	51
61	23
69	35
70	999
71	287
72	13
85	564
86	32
87	37
102	23
103	117
115	29
129	18
130	18
170	5
