Mass spectrum: ALLYL 2-FUROATE; EI-MS
Name: 2-FURANCARBOXYLIC ACID 2-PROPENYL ESTER
Formula: C8H8O3
Exact mass: 152.04734
Instrument type: EI-MS
m/z	relative intensity
27	10
40	47
41	442
42	30
57	211
59	27
66	39
67	74
68	302
69	18
78	30
79	254
80	111
95	999
96	254
97	38
107	76
108	212
112	64
113	32
123	159
124	42
152	318
153	41
