Mass spectrum: 2-ETHYLQUINOLINE; EI-MS
Formula: C11H11N
Exact mass: 157.08915
Instrument type: EI-MS
m/z	relative intensity
27	10
29	19
39	32
50	12
51	15
63	85
65	10
75	119
76	75
77	136
89	10
101	85
102	119
103	10
115	68
116	51
128	204
129	305
140	20
142	17
156	999
157	637
158	50
