Mass spectrum: BENZYL ISOVALERATE; EI-MS
Formula: C12H16O2
Exact mass: 192.11503
Instrument type: EI-MS
m/z	relative intensity
27	58
29	127
39	76
41	123
50	12
51	46
52	12
55	15
56	11
57	360
58	13
63	24
65	104
77	61
78	13
79	42
85	114
89	35
90	54
91	999
92	91
105	13
107	33
108	164
109	11
192	125
193	14
