Mass spectrum: P-ETHYLACETOPHENONE; EI-MS
Name: 4-ETHYLACETOPHENONE
Formula: C10H12O
Exact mass: 148.08882
Instrument type: EI-MS
m/z	relative intensity
15	26
27	60
39	73
41	11
43	197
50	39
51	105
52	17
53	18
62	19
63	61
64	16
65	31
74	16
75	18
76	20
77	197
78	50
79	158
89	60
90	52
91	29
102	13
103	102
104	29
105	251
106	18
133	999
134	102
148	247
149	21
