Mass spectrum: BUTANAL DIISOPENTYL ACETAL; EI-MS
Name: BUTANAL DIISOAMYL ACETAL
Formula: C14H30O2
Exact mass: 230.22458
Instrument type: EI-MS
m/z	relative intensity
27	70
29	83
31	18
39	3
41	137
42	24
43	579
44	3
55	124
56	15
57	13
69	1
70	20
71	999
72	56
73	2
117	15
143	202
144	16
187	69
