Mass spectrum: TETRAHYDROPYRAN; EI-MS
Formula: C5H10O
Exact mass: 86.07316
Instrument type: EI-MS
m/z	relative intensity
14	10
15	36
26	70
27	32
28	484
29	266
30	31
31	5
37	11
38	23
39	210
40	6
41	999
42	43
43	60
44	2
45	515
46	13
50	23
51	2
52	10
53	37
54	29
55	20
56	572
57	63
58	17
67	4
68	11
71	26
85	449
86	38
87	23
