Mass spectrum: 3-METHYL-2-PENTANOL; EI-MS
Formula: C6H14O
Exact mass: 102.10447
Instrument type: EI-MS
m/z	relative intensity
15	14
19	11
27	95
28	15
29	110
31	26
39	51
41	131
42	13
43	73
44	97
45	999
46	24
55	42
56	135
57	43
59	13
69	30
87	22
