Mass spectrum: METHYL ACETOACETATE; EI-MS
Name: 3-OXOBUTANOIC ACID METHYL ESTER
Formula: C5H8O3
Exact mass: 116.04734
Instrument type: EI-MS
m/z	relative intensity
14	23
15	161
26	15
27	44
28	31
29	38
31	32
39	17
41	13
42	113
43	999
44	29
57	23
58	11
59	112
69	69
74	79
84	18
85	109
86	12
88	26
101	49
116	92
