Mass spectrum: METHYL 1-NAPHTHYL KETONE; EI-MS
Formula: C12H10O
Exact mass: 170.07316
Instrument type: EI-MS
m/z	relative intensity
27	12
39	29
40	12
43	13
50	47
51	80
52	10
62	3
63	81
64	50
74	60
75	9
76	48
77	135
78	18
85	3
86	16
87	29
89	17
98	2
99	17
100	14
101	80
102	2
115	50
125	10
126	168
127	90
128	120
139	30
141	29
155	999
156	122
169	12
170	582
171	79
