Mass spectrum: BETA-(TRIMETHYLSILYL)OXY-CINNAMIC ACID TRIMETHYLSILYL ESTER; EI-MS
Name: TRIMETHYLSILYL BETA-TRIMETHYLSILOXYCINNAMATE
Formula: C15H24O3Si2
Exact mass: 308.1264
Instrument type: EI-MS
m/z	relative intensity
45	79
73	262
74	21
75	2
77	13
90	20
118	21
131	2
133	21
147	999
148	185
149	8
237	19
265	19
293	292
294	7
295	30
308	21
