Mass spectrum: 2,6-DICHLOROPHENOL; EI-MS
Formula: C6H4Cl2O
Exact mass: 161.96392
Instrument type: EI-MS
m/z	relative intensity
53	73
60	30
61	89
62	178
63	709
64	80
65	20
72	55
73	124
74	46
75	48
81	67
82	44
83	21
91	38
97	73
98	340
99	150
100	132
101	44
107	26
125	20
126	334
127	33
128	114
133	33
135	22
161	24
162	999
163	82
164	634
165	44
166	99
