Mass spectrum: 1-TRIMETHYLSILYLCYCLOHEXENE; EI-MS
Formula: C9H18Si
Exact mass: 154.11778
Instrument type: EI-MS
m/z	relative intensity
43	87
45	108
55	26
59	446
60	37
73	999
74	85
75	41
77	21
79	306
80	211
81	23
83	26
85	31
95	22
97	21
111	34
135	34
139	388
140	54
154	91
