Mass spectrum: PROPYL PHENYLACETATE; EI-MS
Formula: C11H14O2
Exact mass: 178.09938
Instrument type: EI-MS
m/z	relative intensity
27	108
29	27
38	10
39	95
41	128
42	13
43	452
50	12
51	29
52	10
63	37
64	13
65	155
89	37
90	29
91	999
92	206
93	10
105	11
119	40
136	92
137	10
178	92
