Mass spectrum: 1,2-DICHLOROETHANE; EI-MS
Formula: C2H4Cl2
Exact mass: 97.96901
Instrument type: EI-MS
m/z	relative intensity
25	30
26	142
27	772
28	15
35	19
36	17
47	17
48	23
49	413
50	12
51	129
60	31
61	128
62	999
63	226
64	325
65	61
98	101
100	64
102	11
