Mass spectrum: DIETHYLSILANE; EI-MS
Formula: C4H12Si
Exact mass: 88.07083
Instrument type: EI-MS
m/z	relative intensity
26	10
27	51
28	38
29	11
30	27
31	315
32	21
33	1
42	25
43	238
44	26
45	3
53	47
54	16
55	62
56	6
57	100
58	999
59	969
60	10
61	37
86	162
87	177
88	17
89	20
