Mass spectrum: 1-ACETYLLYSERGIC ACID DIETHYLAMIDE; EI-MS
Formula: C22H27N3O2
Exact mass: 365.21033
Instrument type: EI-MS
m/z	relative intensity
29	240
30	20
42	120
43	16
55	20
56	20
57	10
58	0
72	220
73	10
74	30
84	0
94	10
100	120
101	10
110	0
111	20
115	10
125	10
126	0
127	30
128	140
129	10
139	0
140	10
150	10
151	50
152	1
153	50
154	90
155	20
164	0
165	30
166	30
167	110
168	0
177	10
178	70
179	70
180	1
181	150
182	40
183	10
190	0
191	30
192	80
193	50
194	0
195	60
196	50
197	10
204	0
205	90
206	80
207	200
208	1
209	40
210	10
219	50
220	1
221	330
222	120
223	240
224	0
225	10
233	10
234	10
235	0
236	10
237	10
238	80
239	0
249	70
250	30
251	20
262	0
263	410
264	280
265	140
266	0
267	10
277	10
279	30
280	0
291	10
292	10
293	20
294	0
307	10
321	10
322	110
323	0
334	10
336	10
363	10
364	0
365	999
366	230
367	30
