Mass spectrum: CHOLESTA-3,5-DIENE; EI-MS
Formula: C27H44
Exact mass: 368.3443
Instrument type: EI-MS
m/z	relative intensity
41	730
42	250
43	999
44	44
55	460
56	350
57	911
58	0
67	20
68	30
69	210
70	0
71	140
77	110
78	40
79	2
80	50
81	360
82	70
83	1
91	160
92	90
93	360
94	1
95	210
96	50
97	60
105	4
106	130
107	270
108	120
109	2
114	100
116	40
117	160
118	1
119	190
120	220
121	180
122	1
123	90
124	30
128	280
129	1
130	50
131	160
132	40
133	1
134	40
135	180
136	90
137	0
141	330
142	340
143	220
144	1
145	210
146	80
147	280
148	1
149	90
155	180
156	120
157	2
158	160
159	100
160	60
161	1
162	20
179	20
180	40
181	1
182	20
183	40
184	30
185	0
193	60
194	40
195	80
196	0
197	60
211	90
212	40
213	1
237	50
238	10
247	120
248	1
249	10
255	60
256	20
260	1
269	20
262	10
353	50
366	2
367	30
368	200
369	20
