Mass spectrum: N-2-BUTENYL-N-BUTYLACETOAMIDE (2-D); EI-MS
Formula: C10H19NO
Exact mass: 169.14666
Instrument type: EI-MS
m/z	relative intensity
27	75
29	75
30	69
31	65
39	67
41	65
43	197
44	115
55	100
70	144
84	166
112	59
126	143
127	96
128	54
140	124
141	82
169	320
170	999
171	552
172	111
