Mass spectrum: 2,2,4-TRIMETHYL-4-PHENYLCYCLOPENTANONE; EI-MS
Formula: C14H18O
Exact mass: 202.13577
Instrument type: EI-MS
m/z	relative intensity
41	83
43	17
51	40
53	18
55	32
56	57
65	28
70	20
77	83
78	71
79	16
91	107
102	18
103	102
105	28
115	70
116	22
117	217
118	999
119	117
128	23
129	23
131	29
145	238
146	48
159	79
160	22
187	35
202	339
203	53
