Mass spectrum: TRIMETHYL(3-PHENYLTHIOPENTYL)SILANE; EI-MS
Formula: C14H24SSi
Exact mass: 252.1368
Instrument type: EI-MS
m/z	relative intensity
42	33
43	33
45	65
51	32
55	26
59	56
69	17
73	999
74	84
75	55
77	25
99	22
109	34
110	58
119	29
151	58
167	124
169	26
182	33
237	76
252	54
