Mass spectrum: ISOBUTYL ACETATE; EI-MS
Formula: C6H12O2
Exact mass: 116.08373
Instrument type: EI-MS
m/z	relative intensity
15	47
27	50
28	16
29	47
31	14
39	45
40	10
41	118
42	18
43	999
44	24
55	26
56	358
57	41
61	39
71	39
73	175
74	18
86	23
116	6
