Mass spectrum: HEXANAL BENZYL CIS-3-HEXENYL ACETAL; EI-MS
Formula: C19H30O2
Exact mass: 290.22458
Instrument type: EI-MS
m/z	relative intensity
27	23
29	20
39	28
41	117
42	11
43	26
51	11
53	13
55	136
56	14
57	13
65	34
67	32
69	15
77	16
79	18
81	10
82	44
83	91
91	999
92	88
99	21
107	14
108	12
113	28
173	15
191	50
