Mass spectrum: 4-AMINO-ANTIPYRINE; EI-MS
Formula: C11H13N3O
Exact mass: 203.10586
Instrument type: EI-MS
m/z	relative intensity
204	220
203	930
202	180
119	70
93	150
91	100
84	830
83	570
77	370
57	830
56	999
51	200
42	620
