Mass spectrum: 1-HEPTADECANOYLPYRROLIDINE; EI-MS
Name: N-PALMITOYLPYRROLIDINE
Formula: C21H41NO
Exact mass: 323.31881
Instrument type: EI-MS
m/z	relative intensity
98	90
99	12
112	17
113	999
126	247
127	61
140	12
154	29
168	6
182	17
196	7
210	2
224	2
238	2
252	2
280	2
294	5
308	3
323	5
324	2
