Mass spectrum: N-(2-ADAMANTYL)-2-METHYLCYCLOHEXANIMINE; EI-MS
Formula: C17H27N
Exact mass: 245.21435
Instrument type: EI-MS
m/z	relative intensity
44	81
53	90
55	189
67	480
77	132
79	333
81	185
91	174
92	87
93	294
107	123
110	83
112	118
135	999
136	121
150	330
188	78
202	92
230	196
241	86
243	151
244	93
245	611
246	117
