Mass spectrum: 1,2-DICHLOROPROPANE; EI-MS
Formula: C3H6Cl2
Exact mass: 111.98466
Instrument type: EI-MS
m/z	relative intensity
35	40
36	58
37	120
38	16
39	547
40	82
41	712
42	5
47	27
48	20
49	181
51	6
60	22
61	162
62	781
63	999
64	261
65	306
75	42
76	64
77	128
78	212
79	36
97	5
99	34
112	59
114	28
