Mass spectrum: ISOVALERALDEHYDE DIPROPYL ACETAL; EI-MS
Formula: C11H24O2
Exact mass: 188.17763
Instrument type: EI-MS
m/z	relative intensity
27	168
29	85
31	49
39	6
41	273
42	44
43	999
44	6
45	129
47	83
57	40
59	1
69	326
70	16
71	59
85	1
87	212
89	339
90	14
113	2
129	313
130	23
131	258
132	18
