Mass spectrum: CITRONELLYL ISOVALERATE; EI-MS
Name: ISOVALERIC ACID 3,7-DIMETHYL-6-OCTEN-1-OLESTER
Formula: C15H28O2
Exact mass: 240.20893
Instrument type: EI-MS
m/z	relative intensity
41	130
43	77
55	214
57	595
67	366
69	746
81	984
82	840
95	999
96	297
109	425
110	105
123	852
124	102
138	439
139	69
