Mass spectrum: METHYLALLYLHYDRAZONE ACETONE; EI-MS
Name: ACETONE ALLYLMETHYLHYDRAZONE
Formula: C7H14N2
Exact mass: 126.1157
Instrument type: EI-MS
m/z	relative intensity
29	83
30	94
39	254
40	6
41	461
42	593
43	165
44	35
54	32
55	230
56	999
57	6
58	51
68	83
69	31
70	10
71	24
83	310
84	50
85	55
86	34
99	201
111	36
125	3
126	446
127	46
