Mass spectrum: ETHYL BUTYRATE; EI-MS
Formula: C6H12O2
Exact mass: 116.08373
Instrument type: EI-MS
m/z	relative intensity
27	36
28	21
29	342
41	86
42	66
43	628
44	24
45	137
55	15
60	199
61	104
70	92
71	999
72	45
73	167
88	628
89	164
90	12
101	86
116	69
