Mass spectrum: 2-PHENYLPROPANAL ETHYLENE GLYCOL ACETAL; EI-MS
Formula: C11H14O2
Exact mass: 178.09938
Instrument type: EI-MS
m/z	relative intensity
27	31
29	18
39	18
43	12
45	187
51	35
65	10
73	999
74	37
77	67
78	19
79	28
91	31
103	30
104	13
105	97
117	13
118	14
