Mass spectrum: DIMETHYL ITACONATE; EI-MS
Formula: C7H10O4
Exact mass: 158.05791
Instrument type: EI-MS
m/z	relative intensity
44	45
45	115
53	47
54	225
55	30
56	20
58	999
59	26
67	78
68	161
69	30
70	24
71	146
72	24
81	2
82	35
83	68
85	24
87	2
95	35
98	66
99	481
100	4
101	18
113	136
115	30
126	56
127	675
128	59
130	70
143	6
158	119
159	22
