Mass spectrum: 2-NONANONE; EI-MS
Formula: C9H18O
Exact mass: 142.13577
Instrument type: EI-MS
m/z	relative intensity
15	39
27	138
29	144
39	95
41	226
42	59
43	986
44	21
53	16
55	77
56	22
57	212
58	999
59	219
67	13
69	13
71	214
72	13
82	21
84	29
85	35
99	12
127	16
142	48
