Mass spectrum: 1-OCTEN-3-OL; EI-MS
Formula: C8H16O
Exact mass: 128.12012
Instrument type: EI-MS
m/z	relative intensity
41	88
42	44
43	324
44	29
45	9
54	59
55	118
56	35
57	999
58	156
67	53
68	94
69	29
70	9
71	56
72	456
73	38
81	88
82	88
83	29
85	203
95	24
99	112
110	9
