Mass spectrum: N-BUTYL ACRYLATE; EI-MS
Formula: C7H12O2
Exact mass: 128.08373
Instrument type: EI-MS
m/z	relative intensity
26	39
27	328
28	60
29	136
31	29
39	50
41	193
42	16
43	35
55	999
56	589
57	57
68	16
69	13
70	14
73	411
74	16
85	70
99	16
