Mass spectrum: BUTYL BUTYRATE; EI-MS
Name: BUTYRIC ACID BUTYL ESTER
Formula: C8H16O2
Exact mass: 144.11503
Instrument type: EI-MS
m/z	relative intensity
26	13
27	179
29	232
31	20
39	126
40	27
41	601
42	116
43	999
44	40
45	23
55	125
56	705
57	221
60	121
61	21
70	11
71	819
72	34
73	65
88	32
89	358
90	15
101	44
