Mass spectrum: TRIDECYL BROMIDE; EI-MS
Formula: C13H27Br
Exact mass: 262.12961
Instrument type: EI-MS
m/z	relative intensity
40	32
41	801
42	178
43	999
44	38
53	38
54	35
55	51
56	144
57	717
58	32
67	3
68	21
69	277
70	73
71	30
72	16
81	11
82	15
83	10
84	28
85	153
86	10
97	5
98	12
99	27
107	13
109	1
111	12
113	15
121	6
123	1
125	2
127	8
134	22
135	27
136	25
137	270
138	12
141	0
148	4
149	44
150	5
151	4
152	3
163	4
165	4
177	0
179	1
