Mass spectrum: METHYL ISOPENTYL ETHER; EI-MS
Formula: C6H14O
Exact mass: 102.10447
Instrument type: EI-MS
m/z	relative intensity
27	140
31	69
39	67
41	18
43	999
44	48
73	148
102	66
