Mass spectrum: PARA-DIISOPROPYLBENZENE; EI-MS
Formula: C12H18
Exact mass: 162.14085
Instrument type: EI-MS
m/z	relative intensity
27	57
29	11
39	55
41	118
43	220
50	13
51	46
52	12
53	23
55	16
63	23
64	24
645	12
65	49
655	15
66	27
77	73
78	28
79	45
89	10
91	224
92	19
102	12
103	41
104	17
105	208
106	20
115	51
116	30
117	85
118	21
119	322
120	34
127	12
128	26
129	19
131	56
132	47
133	18
145	29
146	12
147	999
148	124
161	12
162	268
163	39
