Mass spectrum: METHYL DOCOSANOATE; EI-MS
Formula: C23H46O2
Exact mass: 354.34978
Instrument type: EI-MS
m/z	relative intensity
15	14
27	45
29	103
39	3
41	315
42	70
43	514
44	1
45	13
53	16
54	22
55	32
56	78
57	318
58	15
59	8
60	16
67	49
68	27
69	26
70	45
71	116
73	29
74	999
75	285
76	12
79	11
81	7
82	19
83	121
84	35
85	6
87	647
88	56
93	12
95	3
96	14
97	88
98	31
101	6
109	16
111	30
115	19
121	1
123	10
125	16
129	59
130	2
137	10
143	150
144	14
157	1
185	19
199	28
255	22
269	11
