Mass spectrum: HEXADECYLPYRIDINIUM BROMIDE; EI-MS
Formula: C21H38BrN
Exact mass: 383.21876
Instrument type: EI-MS
m/z	relative intensity
43	370
52	259
55	222
69	370
79	593
83	296
93	178
97	278
106	185
111	120
120	120
127	172
135	999
141	137
149	278
155	120
163	117
169	87
177	61
191	52
204	48
218	52
225	111
232	43
246	43
260	39
276	107
290	43
330	82
381	39
527	74
607	87
683	5
754	2
828	3
