Mass spectrum: TRANS-2-BUTENE-1,4-DICARBOXYLIC ACID BIS(TRIMETHYLSILYL) ESTER; EI-MS
Name: DI(TRIMETHYLSILYL) TRANS-3-HEXENEDIOATE
Formula: C12H24O4Si2
Exact mass: 288.12131
Instrument type: EI-MS
m/z	relative intensity
45	179
47	170
54	111
73	999
74	111
75	470
77	307
82	19
93	94
147	615
244	85
273	128
