Mass spectrum: METHYL 2,3-EPOXY-4-PHENYLBUTANOATE; EI-MS
Formula: C11H12O3
Exact mass: 192.07864
Instrument type: EI-MS
m/z	relative intensity
27	27
29	19
39	34
51	6
55	181
63	25
65	67
77	13
78	70
79	47
91	202
92	2
101	72
102	20
103	172
104	20
105	123
115	155
131	59
133	999
134	94
