Mass spectrum: 1-TETRAHYDROFURFURYL-5-FLUOROURACIL; EI-MS
Formula: C9H11FN2O3
Exact mass: 214.07537
Instrument type: EI-MS
m/z	relative intensity
41	170
42	50
43	430
44	0
45	60
54	20
55	60
56	0
71	999
72	130
73	30
84	3
85	50
100	150
101	30
126	0
130	40
131	20
143	60
144	1
194	120
195	20
214	80
215	90
