Mass spectrum: UMBELLIFERONE; EI-MS
Name: 7-HYDROXYCOUMARIN
Formula: C9H6O3
Exact mass: 162.03169
Instrument type: EI-MS
m/z	relative intensity
17	13
18	38
27	51
28	91
29	38
31	13
37	26
38	141
39	141
41	26
42	26
49	26
50	141
51	333
52	141
53	64
55	38
61	51
62	128
63	205
64	38
65	103
66	13
67	256
74	13
77	231
78	423
79	13
80	13
87	13
105	282
106	77
108	13
133	38
134	910
135	64
162	999
163	64
