Mass spectrum: BENZYL CHLORIDE; EI-MS
Formula: C7H7Cl
Exact mass: 126.02363
Instrument type: EI-MS
m/z	relative intensity
37	12
38	24
39	84
41	16
43	11
44	11
45	42
455	11
50	33
51	47
52	13
61	13
62	32
63	77
64	19
65	106
89	52
90	23
91	999
92	78
125	28
126	220
127	27
128	73
