Mass spectrum: MALONIC ACID; EI-MS
Name: PROPANEDIOIC ACID
Formula: C3H4O4
Exact mass: 104.01096
Instrument type: EI-MS
m/z	relative intensity
12	48
13	38
14	113
15	296
16	56
17	14
18	24
22	18
28	107
29	66
31	22
41	21
42	73
43	523
44	999
45	458
46	11
60	253
