Mass spectrum: METHYL 3-OXO-4-PHENYLBUTANOATE; EI-MS
Formula: C11H12O3
Exact mass: 192.07864
Instrument type: EI-MS
m/z	relative intensity
39	47
42	10
45	45
50	2
51	87
52	18
62	12
63	4
64	15
65	92
66	13
73	2
74	13
75	12
76	14
77	18
78	16
79	12
89	47
90	6
91	933
92	73
102	131
103	21
104	47
105	128
118	28
119	37
120	36
131	14
132	10
133	8
134	75
161	10
192	999
193	12
194	15
