Mass spectrum: 1,3,5-BENZENETRICARBOXYLIC ACID TRI(TRIMETHYLSILYL) ESTER; EI-MS
Formula: C18H30O6Si3
Exact mass: 426.13502
Instrument type: EI-MS
m/z	relative intensity
43	172
45	141
47	215
49	12
59	51
61	51
63	55
65	6
73	284
74	53
75	719
76	6
77	999
78	63
81	63
93	33
95	120
100	55
147	24
