Mass spectrum: P-METHOXYBENZYL ISOBUTYRATE; EI-MS
Formula: C12H16O3
Exact mass: 208.10994
Instrument type: EI-MS
m/z	relative intensity
27	50
28	12
39	45
41	60
43	135
50	11
51	40
52	23
63	17
64	12
65	18
71	18
77	85
78	92
89	24
90	17
91	55
92	20
94	10
105	13
106	12
109	19
120	74
121	999
122	85
135	14
137	12
138	23
208	128
209	14
