Mass spectrum: (E)-1,4-DICHLORO-2-TRIMETHYLSILYL-2-BUTENE; EI-MS
Formula: C7H14Cl2Si
Exact mass: 196.02418
Instrument type: EI-MS
m/z	relative intensity
43	35
45	38
51	16
52	31
53	999
54	47
63	23
65	37
67	10
73	209
75	13
79	22
88	62
90	23
93	470
94	38
95	174
96	13
113	14
115	10
181	37
183	27
