Mass spectrum: STIGMAST-5-EN-3BETA-OL; EI-MS
Name: BETASITOSTEROL
Formula: C29H50O
Exact mass: 414.38617
Instrument type: EI-MS
m/z	relative intensity
18	73
28	37
41	24
43	7
55	49
57	110
67	37
69	10
71	98
79	24
81	110
83	7
85	73
91	61
93	61
94	2
95	98
96	24
97	49
105	5
106	37
107	134
108	49
109	6
111	49
118	61
119	61
120	7
121	37
122	61
123	37
124	4
131	24
133	73
134	37
135	7
145	98
146	37
147	73
149	5
151	37
158	37
159	85
160	7
161	98
163	110
171	24
173	4
174	24
175	24
177	37
178	7
179	24
185	49
186	24
187	4
191	49
192	24
199	37
200	2
201	37
203	24
205	37
213	11
214	37
215	49
217	24
227	2
228	36
229	36
231	98
232	2
233	36
234	36
246	36
255	13
271	24
272	37
273	159
274	5
275	49
300	49
301	37
302	7
303	244
304	61
329	183
330	6
341	24
354	24
381	134
382	5
396	268
397	85
399	134
400	12
401	49
412	85
414	999
415	33
416	146
417	34
