Mass spectrum: PROPYL PROPIONATE; EI-MS
Formula: C6H12O2
Exact mass: 116.08373
Instrument type: EI-MS
m/z	relative intensity
27	20
29	174
31	25
41	46
42	99
43	214
56	16
57	999
58	40
59	67
84	42
85	574
86	22
96	11
97	116
