Mass spectrum: 4-CHLOROPHENOL; EI-MS
Formula: C6H5ClO
Exact mass: 128.00289
Instrument type: EI-MS
m/z	relative intensity
29	18
37	30
38	41
39	75
49	13
50	28
51	15
53	28
60	8
61	33
62	49
63	102
64	89
65	263
66	21
72	10
73	54
74	23
75	27
92	22
93	31
94	5
99	54
100	96
101	24
102	33
127	9
128	999
129	70
130	336
131	23
