Mass spectrum: 2,2'-THIOBIS(ACETIC ACID) DIMETHYL ESTER; EI-MS
Formula: C6H10O4S
Exact mass: 178.02998
Instrument type: EI-MS
m/z	relative intensity
42	142
43	244
44	41
45	88
46	136
47	23
59	83
60	4
61	220
74	267
77	47
87	7
91	231
101	41
104	41
105	4
118	309
119	541
120	35
121	3
146	999
147	136
148	53
178	45
179	29
180	23
