Mass spectrum: TERT-BUTYL ACETATE; EI-MS
Formula: C6H12O2
Exact mass: 116.08373
Instrument type: EI-MS
m/z	relative intensity
15	81
27	76
28	18
29	160
31	27
39	119
40	18
41	326
42	44
43	999
44	24
55	28
56	297
57	546
58	26
59	338
61	19
101	159
