Mass spectrum: BENZYL ALCOHOL; EI-MS
Formula: C7H8O
Exact mass: 108.05751
Instrument type: EI-MS
m/z	relative intensity
26	22
27	77
28	23
29	69
30	9
31	56
37	23
38	49
39	145
40	12
41	11
49	16
50	141
51	277
52	75
53	63
54	10
55	10
61	17
62	39
63	80
64	17
65	74
66	8
73	10
74	45
75	26
76	22
77	536
78	130
79	999
80	106
81	10
89	68
90	78
91	175
92	15
105	54
106	24
107	634
108	885
109	70
