Mass spectrum: 2'-METHOXY-6,8-DIMETHYLFLAVONE; EI-MS
Name: 2-(2-METHOXYPHENYL)-6,8-DIMETHYL-4H-CHROMEN-4-ONE
Formula: C18H16O3
Exact mass: 280.10994
Instrument type: EI-MS
m/z	relative intensity
32	27
39	28
63	32
65	5
77	40
89	60
91	240
92	3
119	86
120	351
121	24
126	5
131	120
132	105
147	29
148	51
149	999
150	101
249	25
251	2
280	618
281	107
