Mass spectrum: BENZALDEHYDE; EI-MS
Formula: C7H6O
Exact mass: 106.04186
Instrument type: EI-MS
m/z	relative intensity
37	69
38	83
39	105
49	55
50	378
51	581
52	142
53	19
61	16
62	22
63	29
73	26
74	104
75	46
77	999
78	178
105	838
106	862
107	62
