Mass spectrum: PARA-TOLUIDINE; EI-MS
Formula: C7H9N
Exact mass: 107.0735
Instrument type: EI-MS
m/z	relative intensity
52	13
53	13
77	51
78	17
79	44
80	22
91	11
104	11
106	731
107	999
108	84
