Mass spectrum: PARA-NITROPHENYLTRIMETHYLSILANE; EI-MS
Formula: C9H13NO2Si
Exact mass: 195.07156
Instrument type: EI-MS
m/z	relative intensity
43	35
45	22
53	23
55	11
58	11
67	14
73	54
83	19
93	32
104	15
105	19
119	86
120	26
121	18
122	34
133	12
134	220
135	33
136	12
150	14
180	999
181	149
182	55
195	51
196	9
