Mass spectrum: O,N-DIMETHYLHYDROXYLAMINE; EI-MS
Formula: C2H7NO
Exact mass: 61.05276
Instrument type: EI-MS
m/z	relative intensity
41	10
42	30
43	20
44	2
45	140
46	999
47	20
60	2
61	900
62	20
