Mass spectrum: 4-(ACETYLAMINO)ANTIPYRINE; EI-MS
Formula: C13H15N3O2
Exact mass: 245.11643
Instrument type: EI-MS
m/z	relative intensity
39	29
41	29
42	109
43	20
44	29
52	19
53	19
54	4
55	49
56	999
57	269
58	4
77	79
83	259
84	509
91	5
92	29
93	39
119	24
202	8
203	269
204	59
245	489
246	9
247	9
