Mass spectrum: NONYL-BENZOATE; EI-MS
Formula: C16H24O2
Exact mass: 248.17763
Instrument type: EI-MS
m/z	relative intensity
27	12
29	30
39	27
41	153
42	58
43	149
50	18
51	91
53	12
54	24
55	218
56	264
57	99
67	30
68	48
69	204
70	250
71	72
76	20
77	553
78	43
79	132
82	57
83	151
84	154
85	39
96	28
97	153
98	103
105	999
106	79
122	95
123	791
124	58
126	71
