Mass spectrum: 2-HEPTENOL; EI-MS
Formula: C7H14O
Exact mass: 114.10447
Instrument type: EI-MS
m/z	relative intensity
15	16
26	20
27	327
28	23
29	283
30	12
31	125
38	15
39	244
40	31
41	492
42	181
43	261
44	184
45	32
50	11
51	23
52	12
53	55
54	149
55	315
56	72
57	999
58	63
65	12
67	80
68	154
69	39
70	89
71	106
72	38
81	171
82	12
83	14
85	26
86	16
96	93
114	19
115	12
