Mass spectrum: 2-PROPANOL; EI-MS
Formula: C3H8O
Exact mass: 60.05751
Instrument type: EI-MS
m/z	relative intensity
42	43
43	111
44	21
45	999
46	25
59	47
60	5
