Mass spectrum: 2-PICOLYL ACETATE; EI-MS
Formula: C8H9NO2
Exact mass: 151.06333
Instrument type: EI-MS
m/z	relative intensity
32	350
39	150
43	470
50	4
51	110
52	100
53	70
65	1
78	160
79	170
80	170
92	2
106	60
108	999
109	660
110	1
151	20
152	7
