Mass spectrum: DIAMYL PHTHALATE; EI-MS
Formula: C18H26O4
Exact mass: 306.18311
Instrument type: EI-MS
m/z	relative intensity
43	221
44	7
45	22
50	12
54	82
55	31
56	69
65	2
69	17
70	132
71	84
72	1
76	22
77	12
93	17
101	1
104	22
105	16
121	15
122	1
123	8
127	7
142	7
149	999
150	93
151	12
167	16
219	5
220	12
223	14
237	119
238	1
306	13
307	7
