Mass spectrum: TRIETHYL PHOSPHATE; EI-MS
Formula: C6H15O4P
Exact mass: 182.0708
Instrument type: EI-MS
m/z	relative intensity
182	280
155	999
139	200
138	270
137	230
127	820
125	340
111	270
109	670
99	950
82	550
81	710
