Mass spectrum: 2,6,6,9-TETRAMETHYL-5ALPHA,8BETA-TRICYCLO(6.3.0.0(1,5))UNDECA-2,9-DIENE; EI-MS
Formula: C15H22
Exact mass: 202.17215
Instrument type: EI-MS
m/z	relative intensity
55	30
81	102
91	98
93	9
95	28
105	182
106	33
107	7
109	35
116	30
117	33
119	19
121	353
122	93
123	28
130	5
131	700
132	56
133	128
134	9
144	52
145	490
146	180
147	18
148	37
159	171
160	115
173	8
187	529
188	78
202	999
203	121
