Mass spectrum: DIALLYL DISULFIDE; EI-MS
Formula: C6H10S2
Exact mass: 146.02239
Instrument type: EI-MS
m/z	relative intensity
15	19
26	11
27	49
37	14
38	40
39	428
40	31
41	999
42	29
45	203
46	36
47	53
53	11
58	11
61	11
64	40
69	13
71	44
72	32
73	58
74	12
79	21
81	125
85	27
103	31
104	13
105	59
113	25
146	95
