Mass spectrum: 1-DIETHOXYPHOSPHORYL-4-HYDROXY-NONAN-2-ONE; EI-MS
Formula: C13H27O5P
Exact mass: 294.15961
Instrument type: EI-MS
m/z	relative intensity
38	62
40	150
42	151
43	60
44	68
55	107
65	82
81	110
96	76
97	159
105	55
108	56
109	100
121	104
123	252
124	52
125	195
138	69
139	185
149	74
151	160
152	181
167	173
179	191
194	421
195	363
223	999
224	94
225	24
228	16
233	34
236	18
247	15
248	11
249	27
276	56
277	15
294	33
