Mass spectrum: P-CYANOBENZALDEHYDE DIMETHYLACETAL; EI-MS
Formula: C10H11NO2
Exact mass: 177.07898
Instrument type: EI-MS
m/z	relative intensity
47	10
50	15
51	19
59	17
74	14
75	79
76	29
77	11
89	10
91	37
102	89
103	17
116	63
117	18
118	21
130	83
131	18
146	999
147	108
176	13
177	10
