Mass spectrum: ISOPROPYL ACETATE; EI-MS
Formula: C5H10O2
Exact mass: 102.06808
Instrument type: EI-MS
m/z	relative intensity
14	10
15	70
16	10
17	7
26	10
27	80
28	150
31	6
32	10
39	55
40	10
41	13
42	80
43	999
44	80
45	4
59	120
60	10
61	220
71	1
74	10
87	120
29	20
