Mass spectrum: 2,3-DIMETHYLANILINE; EI-MS
Formula: C8H11N
Exact mass: 121.08915
Instrument type: EI-MS
m/z	relative intensity
42	82
51	117
60	98
77	23
104	101
105	131
120	999
121	592
