Mass spectrum: 8,12-EPOXYEUDESMA-4(14),7(11)-DIEN-12-ONE; EI-MS
Name: ATRACTYLENOLIDE 2
Formula: C15H20O2
Exact mass: 232.14633
Instrument type: EI-MS
m/z	relative intensity
17	43
18	273
28	38
29	4
32	14
39	19
41	120
43	11
53	62
54	48
55	129
56	3
57	244
58	24
65	24
67	13
68	62
69	134
70	48
71	14
77	96
78	24
79	163
80	7
81	182
82	105
83	110
84	3
85	124
91	177
92	43
93	28
94	91
95	158
96	62
97	6
98	19
99	48
105	201
106	7
107	273
108	172
109	177
110	18
111	124
112	62
113	53
117	5
118	34
119	139
120	62
121	40
122	479
123	67
124	43
125	4
126	29
127	29
129	29
132	4
133	124
134	77
135	110
136	6
137	43
140	19
141	19
143	4
144	19
145	86
146	53
147	12
148	96
149	72
150	67
151	2
152	29
153	19
157	29
158	4
159	86
160	38
161	153
162	9
163	53
164	53
165	34
171	3
172	19
173	24
174	19
175	11
176	101
177	57
178	34
179	3
183	19
185	19
186	24
187	11
188	34
189	105
190	153
191	3
199	62
200	24
203	201
204	22
205	19
214	24
215	19
217	29
218	53
232	999
233	144
234	19
235	24
