Mass spectrum: ALPHA,ALPHA-DIMETHYLBENZYL ISOBUTYRATE; EI-MS
Formula: C13H18O2
Exact mass: 206.13068
Instrument type: EI-MS
m/z	relative intensity
27	52
28	19
39	59
41	193
42	17
43	310
50	13
51	48
52	12
63	12
65	18
71	143
77	117
78	41
79	39
91	299
92	24
102	10
103	51
104	15
105	30
115	17
117	49
118	65
119	999
120	104
121	25
135	13
136	35
206	33
