Mass spectrum: DIMETHYLHYDRAZONE HEXANECARBALDEHYDE; EI-MS
Name: HEPTANAL DIMETHYLHYDRAZONE
Formula: C9H20N2
Exact mass: 156.16265
Instrument type: EI-MS
m/z	relative intensity
29	128
30	56
39	72
40	2
41	183
42	350
43	445
44	89
45	350
46	42
53	16
54	2
55	106
56	89
57	30
58	9
59	411
60	333
61	12
67	1
68	21
69	28
70	39
71	15
72	39
73	72
82	27
83	4
84	27
85	721
86	999
87	7
95	14
96	11
97	24
98	1
99	205
100	33
112	67
113	12
114	31
127	119
128	23
141	5
155	19
156	556
157	75
