Mass spectrum: TRANS-2-METHYLCHROMAN-4-OL; EI-MS
Formula: C10H12O2
Exact mass: 164.08373
Instrument type: EI-MS
m/z	relative intensity
15	10
17	7
18	30
26	1
27	100
28	20
29	30
31	1
37	10
38	50
39	350
40	6
41	100
42	20
43	60
45	1
50	90
51	230
52	53
53	4
54	7
55	50
57	7
58	1
61	10
62	47
63	140
64	6
65	300
66	80
67	10
68	1
69	17
72	7
73	7
74	4
75	50
76	120
77	320
78	6
79	37
86	7
87	7
88	1
89	53
90	20
91	200
92	6
93	80
94	100
95	80
96	1
101	10
102	40
103	70
104	14
105	70
106	7
107	70
108	1
115	100
116	20
117	40
118	3
119	30
120	67
121	897
122	60
123	200
124	13
126	7
127	2
128	23
129	10
130	7
131	999
132	100
133	8
135	10
144	1
145	150
146	117
147	50
148	1
149	8
163	67
164	490
165	6
166	7
