Mass spectrum: CYCLOHEXANOL; EI-MS
Formula: C6H12O
Exact mass: 100.08882
Instrument type: EI-MS
m/z	relative intensity
51	29
53	65
54	134
55	149
56	256
57	999
58	89
66	75
67	268
68	22
69	27
70	41
71	136
72	68
81	210
82	373
83	45
99	21
100	21
