Mass spectrum: PHENOL; EI-MS
Formula: C6H6O
Exact mass: 94.04186
Instrument type: EI-MS
m/z	relative intensity
43	83
47	46
55	70
65	156
66	159
94	999
95	66
