Mass spectrum: ISOBUTYL CHLOROFORMATE; EI-MS
Name: 2-METHYLPROPYL CHLOROFORMATE
Formula: C5H9ClO2
Exact mass: 136.02911
Instrument type: EI-MS
m/z	relative intensity
15	110
26	89
27	410
28	12
29	295
30	12
31	23
35	47
36	142
37	30
38	60
39	457
40	88
41	999
42	119
43	553
44	271
45	14
49	12
50	39
51	34
53	43
54	15
55	146
56	685
57	481
58	21
62	15
63	130
65	43
77	16
94	21
95	10
