Mass spectrum: 2-TRIMETHYLSILYLMETHYL-5-ISOPROPYL-8-METHYLENE-1,4,4A,5,6,7,8,8A-OCTAHYDRONAPHTHALENE; EI-MS
Formula: C18H32Si
Exact mass: 276.22733
Instrument type: EI-MS
m/z	relative intensity
42	33
45	46
59	50
69	20
73	999
74	88
75	50
77	17
79	18
91	34
92	56
93	75
105	27
117	25
119	18
133	20
136	120
148	39
159	65
166	22
177	19
206	44
233	75
234	20
261	27
276	111
277	29
