Mass spectrum: 17BETA-ACETOXY-1BETA-HYDROXY-5ALPHA-ANDROSTANE; EI-MS
Formula: C21H34O3
Exact mass: 334.25079
Instrument type: EI-MS
m/z	relative intensity
29	20
39	10
41	52
43	242
44	12
53	19
55	87
57	23
65	10
67	76
68	16
69	33
71	16
77	32
78	9
79	90
80	24
81	142
82	21
83	21
91	79
92	21
93	129
94	103
95	113
96	18
97	28
104	23
105	128
106	54
107	129
108	286
109	95
110	26
111	26
117	28
118	26
119	81
120	58
121	84
122	61
123	33
124	17
129	11
130	14
131	160
132	46
133	105
134	71
135	73
136	20
137	15
143	10
144	10
145	101
146	527
147	196
148	125
149	62
150	12
157	11
158	11
159	124
160	92
161	107
162	79
163	38
164	9
165	12
171	15
173	44
174	65
175	57
176	20
177	14
179	12
185	31
186	15
187	41
188	21
189	17
199	30
200	21
201	307
202	75
203	29
206	167
207	42
208	16
213	21
214	13
215	75
216	22
217	20
219	43
220	30
221	27
227	75
228	34
229	12
230	18
231	11
233	28
234	19
241	136
242	28
245	12
246	21
247	10
248	12
255	19
256	671
257	271
258	45
259	103
260	34
261	67
262	20
273	20
274	240
275	85
287	76
288	17
301	36
302	8
316	999
317	254
318	36
319	8
334	90
335	23
