Mass spectrum: 2-ETHYL-4-METHYLPHENOL; EI-MS
Formula: C9H12O
Exact mass: 136.08882
Instrument type: EI-MS
m/z	relative intensity
27	202
49	182
51	156
77	25
91	224
107	261
121	999
136	385
