Mass spectrum: HOMOPTEROCARPIN; EI-MS
Formula: C17H16O4
Exact mass: 284.10486
Instrument type: EI-MS
m/z	relative intensity
133	50
148	220
149	20
151	30
152	20
161	180
253	40
267	30
269	240
270	40
282	20
283	340
284	999
285	200
286	20
