Mass spectrum: BETA-TERPINEOL; EI-MS
Name: 1-METHYL-4-ISOPROPENYLCYCLOHEXAN-1-OL
Formula: C10H18O
Exact mass: 154.13577
Instrument type: EI-MS
m/z	relative intensity
58	346
69	592
71	999
81	292
84	455
93	766
94	511
107	477
108	339
121	467
122	51
136	439
139	87
