Mass spectrum: METHYL ACRYLATE; EI-MS
Formula: C4H6O2
Exact mass: 86.03678
Instrument type: EI-MS
m/z	relative intensity
27	230
28	12
31	27
41	11
42	105
43	44
44	16
55	999
56	40
57	13
58	122
59	40
68	24
86	184
87	41
