Mass spectrum: IMIPRAMINE; EI-MS
Formula: C19H24N2
Exact mass: 280.19395
Instrument type: EI-MS
m/z	relative intensity
29	38
31	14
33	3
34	2
35	204
36	9
37	64
38	3
39	3
40	6
41	49
42	1
43	81
44	69
45	9
46	0
50	3
51	19
52	9
53	1
54	8
55	33
56	37
57	10
58	789
59	41
60	3
62	0
63	11
64	4
65	31
66	0
67	9
68	7
69	29
70	10
71	69
72	37
73	7
74	0
75	9
76	8
77	36
78	2
79	12
80	7
81	15
82	0
83	23
84	79
85	629
86	7
87	8
89	29
90	20
91	11
92	20
93	11
94	6
95	1
96	7
97	14
98	12
99	1
100	2
101	7
102	13
103	2
104	28
105	38
106	39
107	2
108	3
109	11
110	6
111	1
112	12
113	9
115	22
116	0
117	49
118	47
119	29
120	1
121	4
125	5
126	9
127	3
128	20
129	37
130	141
131	3
132	13
133	5
134	9
135	1
136	1
139	11
140	43
141	1
142	13
143	13
144	14
145	1
148	1
149	16
150	4
151	1
152	19
153	9
154	11
155	1
156	8
157	1
158	1
159	1
160	1
161	1
162	5
163	1
164	9
165	49
166	26
167	4
168	11
169	9
170	1
175	0
176	9
177	9
178	54
179	6
180	39
181	11
182	4
183	0
185	4
187	1
188	1
189	1
190	15
191	39
192	69
193	24
194	184
195	294
196	49
197	1
198	5
199	9
200	1
202	1
203	9
204	39
205	23
206	9
207	34
208	203
209	59
210	2
211	4
212	9
213	7
216	0
217	11
218	29
219	23
220	11
221	29
222	49
223	11
224	0
232	11
233	54
234	649
235	999
236	169
237	19
238	4
247	0
248	7
249	14
250	3
251	0
264	1
265	6
266	1
279	0
280	489
281	104
282	13
283	3
