Mass spectrum: DIBENZOTHIOPHENE; EI-MS
Formula: C12H8S
Exact mass: 184.03467
Instrument type: EI-MS
m/z	relative intensity
44	39
63	32
79	82
91	5
92	125
138	35
139	154
140	4
152	114
182	35
183	58
184	999
185	175
186	83
