Mass spectrum: 2-TERT-BUTYLCYCLOHEXANONE; EI-MS
Name: 2-(1,1-DIMETHYLETHYL)CYCLOHEXANONE
Formula: C10H18O
Exact mass: 154.13577
Instrument type: EI-MS
m/z	relative intensity
15	10
27	117
29	125
39	147
40	10
41	397
42	70
43	82
51	14
53	55
54	14
55	262
56	52
57	310
58	12
65	11
67	67
68	14
69	230
70	205
71	20
77	13
79	18
81	21
83	206
84	16
93	12
95	93
96	13
97	96
98	999
99	71
110	18
111	16
121	11
139	111
154	22
