Mass spectrum: PENTYL BENZOATE; EI-MS
Name: AMYL BENZOATE
Formula: C12H16O2
Exact mass: 192.11503
Instrument type: EI-MS
m/z	relative intensity
27	101
29	92
39	72
41	119
42	129
43	63
50	52
51	198
52	12
55	114
69	22
70	214
71	12
74	10
75	12
76	25
77	546
78	44
79	68
105	999
106	82
122	168
123	737
124	57
192	12
