Mass spectrum: 5-AMINO-1-PENTANOL; EI-MS
Formula: C5H13NO
Exact mass: 103.09971
Instrument type: EI-MS
m/z	relative intensity
18	45
27	32
28	56
29	2
30	999
31	41
39	21
41	4
42	24
43	42
44	23
45	4
55	13
56	34
59	13
72	1
85	15
86	16
103	10
