Mass spectrum: HEPTYL ACETATE; EI-MS
Formula: C9H18O2
Exact mass: 158.13068
Instrument type: EI-MS
m/z	relative intensity
15	41
27	104
28	21
29	127
31	10
39	73
40	13
41	246
42	161
43	999
44	27
53	14
54	28
55	268
56	399
57	130
58	27
61	242
67	10
68	52
69	190
70	382
71	25
73	73
83	35
97	17
98	178
99	12
101	11
116	17
