Mass spectrum: 1-PHENYLETHYL 3-METHYLBUTYRATE; EI-MS
Name: METHYL PHENYL CARBINYL ISOVALERATE
Formula: C13H18O2
Exact mass: 206.13068
Instrument type: EI-MS
m/z	relative intensity
27	73
29	60
39	75
41	127
42	32
43	90
50	26
51	90
52	18
53	11
55	11
57	263
58	11
63	15
65	12
77	227
78	114
79	125
85	197
91	12
102	12
103	119
104	594
105	999
106	90
107	37
121	40
122	672
123	60
206	78
