Mass spectrum: ISOFLAVONE; EI-MS
Name: 3-PHENYL-4H-CHROMEN-4-ONE
Formula: C15H10O2
Exact mass: 222.06808
Instrument type: EI-MS
m/z	relative intensity
32	35
39	68
50	73
51	6
52	25
62	29
63	149
64	15
74	41
75	44
76	87
77	3
89	38
92	444
102	130
111	6
120	508
121	33
149	94
165	9
221	999
222	905
223	141
