Mass spectrum: PARA-NITROACETOPHENONE; EI-MS
Formula: C8H7NO3
Exact mass: 165.04259
Instrument type: EI-MS
m/z	relative intensity
43	184
44	26
50	63
51	24
55	11
57	14
63	19
64	20
65	24
74	28
75	47
76	122
77	38
91	27
92	84
104	277
105	23
119	10
120	192
121	24
149	20
150	999
151	79
165	114
166	10
