Mass spectrum: PENTAFLUOROBENZONITRILE; EI-MS
Formula: C7F5N
Exact mass: 192.99509
Instrument type: EI-MS
m/z	relative intensity
43	18
50	2
55	30
56	14
57	19
60	7
62	19
69	71
74	59
79	47
81	17
86	40
93	186
94	6
96	34
98	37
100	41
105	40
110	5
112	7
117	70
118	2
124	340
125	21
131	4
143	34
148	53
162	99
163	4
167	2
174	26
191	1
193	999
194	77
