Mass spectrum: DIISOPENTYL ETHER; EI-MS
Formula: C10H22O
Exact mass: 158.16707
Instrument type: EI-MS
m/z	relative intensity
15	11
27	126
28	47
29	166
30	12
31	25
39	74
40	15
41	237
42	114
43	999
44	35
45	87
53	18
55	191
56	44
57	33
59	17
69	378
70	888
71	729
72	42
85	10
101	179
102	12
