Mass spectrum: METHYL LAURATE; EI-MS
Name: METHYL DODECANOATE
Formula: C13H26O2
Exact mass: 214.19328
Instrument type: EI-MS
m/z	relative intensity
15	39
27	76
29	130
39	53
41	258
42	62
43	237
45	12
53	15
54	15
55	203
56	40
57	94
59	98
67	17
69	93
70	16
71	22
73	16
74	999
75	121
83	45
84	22
85	13
87	550
88	52
97	31
98	18
101	42
115	21
129	44
143	77
157	10
171	58
183	52
185	18
214	41
