Mass spectrum: 2-METHYLBUTYL HEXANOATE; EI-MS
Formula: C11H22O2
Exact mass: 186.16198
Instrument type: EI-MS
m/z	relative intensity
27	155
29	254
31	17
41	311
42	160
43	722
44	19
45	28
53	20
55	261
57	64
60	112
61	21
69	44
70	999
71	531
72	34
73	67
74	12
85	11
87	52
99	944
100	64
101	10
115	12
116	36
117	102
129	12
130	11
39	108
56	48
