Mass spectrum: ALLYLBENZENE; EI-MS
Formula: C9H10
Exact mass: 118.07825
Instrument type: EI-MS
m/z	relative intensity
41	35
43	10
49	10
50	25
51	135
52	15
55	15
56	10
57	20
62	15
63	55
64	25
65	120
66	10
74	15
75	10
76	15
77	60
78	60
79	10
82	10
86	10
87	15
89	55
90	10
91	355
92	20
102	15
103	85
104	15
115	345
116	60
117	999
118	905
119	85
