Mass spectrum: BENZYL PHENYLACETATE; EI-MS
Formula: C15H14O2
Exact mass: 226.09938
Instrument type: EI-MS
m/z	relative intensity
65	43
77	6
91	999
92	87
108	20
226	14
227	2
