Mass spectrum: META-METHYLPHENETOLE; EI-MS
Formula: C9H12O
Exact mass: 136.08882
Instrument type: EI-MS
m/z	relative intensity
26	63
27	331
28	82
29	29
31	95
37	12
38	43
39	20
40	21
41	43
43	32
45	4
50	23
51	15
52	72
55	1
59	32
62	26
63	70
64	2
65	103
66	11
74	10
75	1
76	10
77	152
78	102
79	19
80	102
81	11
87	11
89	4
90	93
91	132
92	11
93	1
99	14
105	14
106	51
107	57
108	999
109	69
111	9
121	1
125	16
136	505
137	16
