Mass spectrum: 2-ETHYL-1-HEXYLAMINE; EI-MS
Formula: C8H19N
Exact mass: 129.15175
Instrument type: EI-MS
m/z	relative intensity
18	43
27	44
28	28
29	5
30	999
31	20
39	28
41	8
42	18
55	32
56	36
58	2
69	15
70	12
112	15
129	19
