Mass spectrum: TETRAHYDROFURAN; EI-MS
Formula: C4H8O
Exact mass: 72.05751
Instrument type: EI-MS
m/z	relative intensity
14	18
15	47
26	40
27	25
28	32
29	127
31	37
37	2
38	36
39	209
40	112
41	53
42	999
43	170
44	42
45	1
71	270
72	295
73	16
