Mass spectrum: ANTHRANILIC ACID AMYL ESTER; EI-MS
Name: ORTHO AMINO AMYLBENZOATE
Formula: C12H17NO2
Exact mass: 207.12593
Instrument type: EI-MS
m/z	relative intensity
27	15
29	13
39	39
41	40
43	39
63	14
64	23
65	158
66	21
91	27
92	261
93	28
119	999
120	324
121	29
137	328
138	30
189	12
207	180
208	22
