Mass spectrum: 2,6-DIMETHYLANILINE; EI-MS
Name: 2,6-XYLIDINE
Formula: C8H11N
Exact mass: 121.08915
Instrument type: EI-MS
m/z	relative intensity
14	35
15	267
29	69
30	115
32	15
37	75
38	218
39	775
40	114
41	225
42	211
43	28
47	22
49	20
50	231
51	408
52	399
53	240
54	196
55	28
56	9
59	36
60	33
61	47
62	124
63	253
64	74
65	253
66	123
67	58
68	23
74	41
75	43
76	54
77	373
78	264
79	126
80	121
81	22
85	7
86	13
87	12
88	6
89	50
90	22
91	244
92	79
93	208
94	109
95	14
102	29
103	118
104	92
105	44
106	999
107	85
116	5
117	16
118	43
119	25
120	594
121	996
122	93
