Mass spectrum: 2-METHYL-5-(4-METHYLPENTYL)PYRIDINE; EI-MS
Formula: C12H19N
Exact mass: 177.15175
Instrument type: EI-MS
m/z	relative intensity
39	53
41	58
42	58
43	5
44	25
51	24
52	18
53	3
55	13
57	14
63	12
65	5
66	15
67	11
77	135
78	4
79	81
80	13
91	38
92	3
93	31
94	30
104	14
105	2
106	999
107	247
108	32
117	4
118	19
119	57
120	137
121	5
132	96
133	17
134	33
135	2
146	10
148	22
149	10
150	4
161	18
162	32
163	213
175	2
176	16
177	120
178	18
