Mass spectrum: ISOPROPYLHYDRAZONE CROTONE ALDEHYDE; EI-MS
Name: 2-BUTENAL ISOPROPYLHYDRAZONE
Formula: C7H14N2
Exact mass: 126.1157
Instrument type: EI-MS
m/z	relative intensity
26	295
27	295
28	180
29	10
30	84
39	328
40	51
41	61
42	361
43	270
44	869
45	3
53	79
54	49
55	131
56	21
57	36
58	64
67	62
68	30
69	279
70	66
81	23
82	9
83	559
84	46
111	999
112	7
126	599
127	51
