Mass spectrum: METHYLHYDRAZONE ACETALDEHYDE; EI-MS
Name: ACETALDEHYDE METHYLHYDRAZONE
Formula: C3H8N2
Exact mass: 72.06875
Instrument type: EI-MS
m/z	relative intensity
27	167
28	386
29	200
30	86
31	131
39	34
40	54
41	14
42	363
43	195
44	95
45	1
55	50
56	65
57	368
58	2
69	15
71	181
72	999
73	50
