Mass spectrum: P-CRESYL BUTYRATE; EI-MS
Name: 4-METHYLPHENYL BUTYRATE
Formula: C11H14O2
Exact mass: 178.09938
Instrument type: EI-MS
m/z	relative intensity
27	107
29	12
39	67
41	83
42	15
43	304
50	15
51	42
52	23
53	24
55	17
63	15
65	23
71	116
77	107
78	34
79	46
80	19
90	15
91	36
107	183
108	999
109	89
178	74
