Mass spectrum: (6E,10E)-1-AETOXY-14-(1-METHYL-1,2-EPOXYETHYL)-2,3-EPOXY-3,7,11-TRIMETHYLCYCLOTETRADECADIENE; EI-MS
Formula: C22H34O4
Exact mass: 362.24571
Instrument type: EI-MS
m/z	relative intensity
18	180
29	36
40	32
41	10
43	999
44	36
53	70
55	29
57	115
67	242
68	150
69	26
71	130
79	131
80	85
81	82
82	109
83	259
84	78
85	10
91	70
92	41
93	445
94	9
95	406
96	90
97	108
98	3
100	42
101	53
105	133
106	8
107	243
108	285
109	306
110	6
111	96
113	35
117	40
119	17
120	81
121	148
122	103
123	11
124	36
125	288
126	40
131	6
133	132
134	105
135	121
136	5
137	88
143	32
145	55
146	3
147	72
148	70
149	105
150	4
151	45
159	59
161	62
162	3
163	42
173	22
175	33
177	4
187	22
189	20
191	20
201	2
203	20
204	19
217	12
219	1
229	13
271	8
287	8
289	1
302	12
303	5
320	4
362	2
363	5
