Mass spectrum: 2-METHYLPYRIDINE; EI-MS
Formula: C6H7N
Exact mass: 93.05785
Instrument type: EI-MS
m/z	relative intensity
25	28
26	109
27	113
28	10
31	32
36	21
37	75
38	14
39	330
40	98
41	40
42	3
46	22
49	28
50	125
51	18
52	91
53	57
54	32
61	4
62	37
63	83
64	39
65	17
66	395
67	89
78	178
79	3
91	28
92	194
93	999
94	72
