Mass spectrum: 2,3-DIMETHYLCHROMOTHIONE; EI-MS
Formula: C11H10OS
Exact mass: 190.04524
Instrument type: EI-MS
m/z	relative intensity
40	10
41	20
42	10
43	110
44	10
45	40
46	10
47	15
49	10
50	20
51	40
52	10
53	30
54	10
55	10
56	10
57	10
58	10
59	15
60	10
61	10
62	15
63	45
64	15
65	30
66	10
67	15
68	10
71	15
72	10
73	15
74	20
75	25
76	45
77	50
78	15
79	10
81	10
82	15
83	11
84	10
85	10
86	10
87	20
88	10
89	20
91	25
92	10
93	10
94	10
95	45
96	10
97	60
98	10
99	10
101	10
102	20
103	25
104	10
105	15
106	15
107	10
108	35
109	10
111	10
112	10
113	10
114	15
115	35
116	10
117	15
118	10
119	10
121	10
122	25
123	10
124	10
125	10
126	15
127	35
128	55
129	45
130	15
131	65
132	20
133	10
134	10
135	10
139	15
140	10
141	10
142	15
143	10
144	35
145	60
146	20
147	50
148	50
149	10
155	10
156	15
157	380
158	40
159	10
173	10
174	10
175	70
176	15
177	10
188	10
189	245
190	999
191	155
192	75
193	15
