Mass spectrum: ISOPENTYL LEVULINATE; EI-MS
Formula: C10H18O3
Exact mass: 186.12559
Instrument type: EI-MS
m/z	relative intensity
15	28
26	13
27	134
29	95
39	76
41	166
42	74
43	999
44	23
45	11
53	16
55	189
56	71
57	30
58	16
69	18
70	346
71	448
72	43
73	16
74	66
98	29
99	788
100	51
101	52
117	83
144	28
