Mass spectrum: BENZALDEHYDE DIETHYL ACETAL; EI-MS
Formula: C11H16O2
Exact mass: 180.11503
Instrument type: EI-MS
m/z	relative intensity
27	83
29	143
39	18
43	18
47	86
50	33
51	107
52	27
63	14
75	59
76	11
77	308
78	56
79	447
80	30
89	18
90	15
91	21
103	48
105	179
106	30
107	630
108	48
123	14
135	999
136	103
