Mass spectrum: IMIDAZOLE; EI-MS
Formula: C3H4N2
Exact mass: 68.03745
Instrument type: EI-MS
m/z	relative intensity
26	21
28	224
38	62
39	91
40	313
41	586
67	101
68	999
69	97
