Mass spectrum: 3-BUTYLPYRIDINE; EI-MS
Formula: C9H13N
Exact mass: 135.1048
Instrument type: EI-MS
m/z	relative intensity
27	12
29	15
31	20
38	44
39	150
40	10
41	20
42	18
43	100
51	80
52	40
53	13
64	22
65	280
66	80
77	14
78	50
79	50
91	48
92	999
93	911
94	27
105	11
106	140
107	30
119	10
120	20
135	631
136	70
