Mass spectrum: 2-METHYLIMIDAZOLINE; EI-MS
Formula: C4H8N2
Exact mass: 84.06875
Instrument type: EI-MS
m/z	relative intensity
15	108
27	22
28	65
29	23
30	999
31	128
41	23
42	104
43	676
44	197
45	52
54	20
55	80
58	39
59	32
60	33
72	7
73	254
74	8
83	22
84	33
85	15
