Mass spectrum: 6-UNDECANONE; EI-MS
Name: DIPENTYL KETONE
Formula: C11H22O
Exact mass: 170.16707
Instrument type: EI-MS
m/z	relative intensity
15	13
26	11
27	215
28	6
29	310
39	115
40	21
41	31
42	71
43	999
44	32
53	3
54	12
55	145
56	26
57	4
58	507
59	162
67	18
69	2
70	18
71	498
72	105
81	2
83	12
85	65
86	16
96	2
98	13
99	585
100	44
114	12
115	32
127	69
128	13
141	1
170	84
171	16
