Mass spectrum: RUTIN; EI-MS
Name: QUERCETIN RUTINOSIDE
Formula: C27H30O16
Exact mass: 610.15338
Instrument type: EI-MS
m/z	relative intensity
26	43
27	203
28	494
29	31
30	38
31	187
32	15
36	2
38	27
39	207
40	49
41	25
42	174
43	602
44	174
45	25
47	29
50	32
51	71
52	4
53	124
54	26
55	270
56	13
57	373
58	129
59	76
60	83
61	120
63	46
65	35
66	1
67	73
68	46
69	299
70	11
71	187
72	61
73	365
74	7
75	57
76	20
77	28
79	2
80	24
81	77
82	22
83	2
84	22
85	216
86	56
87	7
89	21
91	30
95	11
96	5
97	80
98	72
99	56
100	2
101	17
102	56
103	17
108	4
109	86
110	64
111	18
113	8
114	28
115	44
121	44
123	2
124	14
126	62
127	63
128	23
129	67
136	39
137	166
142	5
144	76
145	23
147	49
149	7
150	23
151	12
153	116
173	1
200	11
217	12
228	35
229	5
245	46
257	20
273	74
274	6
285	21
286	91
301	191
302	999
303	207
304	17
316	46
