Mass spectrum: 2-NONANOL; EI-MS
Formula: C9H20O
Exact mass: 144.15142
Instrument type: EI-MS
m/z	relative intensity
27	79
28	11
29	100
31	13
39	49
41	166
42	59
43	150
44	72
45	999
46	25
55	135
56	78
57	84
58	13
69	178
70	61
71	37
83	34
84	41
97	33
98	54
111	19
126	25
129	24
