Mass spectrum: 2-METHYL-2-BUTANOL; EI-MS
Name: TERT-PENTYL ALCOHOL
Formula: C5H12O
Exact mass: 88.08882
Instrument type: EI-MS
m/z	relative intensity
15	46
26	14
27	112
28	20
29	119
31	293
39	72
41	167
42	38
43	294
44	14
45	80
53	17
55	418
56	21
57	20
58	14
59	999
60	33
70	20
71	52
73	552
74	25
