Mass spectrum: BENZALDEHYDE DIISOPENTYL ACETAL; EI-MS
Name: BENZALDEHYDE DIISOAMYL ACETAL
Formula: C17H28O2
Exact mass: 264.20893
Instrument type: EI-MS
m/z	relative intensity
27	94
29	146
39	51
41	22
42	38
43	776
44	27
51	3
53	13
55	124
56	14
57	1
69	14
70	26
71	674
72	3
77	135
78	28
79	155
80	1
89	12
90	17
91	46
92	1
105	183
106	53
107	915
108	9
177	999
178	142
