Mass spectrum: BENZOPHENONE; EI-MS
Formula: C13H10O
Exact mass: 182.07316
Instrument type: EI-MS
m/z	relative intensity
51	153
75	65
77	564
105	999
106	90
113	43
118	34
151	3
157	43
181	50
182	398
183	37
