Mass spectrum: ALLYLAMINE; EI-MS
Name: 2-PROPEN-1-AMINE
Formula: C3H7N
Exact mass: 57.05785
Instrument type: EI-MS
m/z	relative intensity
15	18
18	28
25	13
26	68
26.5	20
27	95
27.5	19
28	538
29	116
30	815
31	15
37	24
38	39
39	169
40	20
41	63
42	27
44	17
51	21
52	44
54	69
55	22
56	999
57	471
58	20
