Mass spectrum: 2-METHOXYETHYL ACETATE; EI-MS
Name: METHYLCELLOSOLVE ACETATE
Formula: C5H10O3
Exact mass: 118.06299
Instrument type: EI-MS
m/z	relative intensity
15	40
28	46
29	62
31	40
42	17
43	999
44	42
45	937
46	22
58	980
59	61
61	19
73	70
75	15
88	35
118	2
