Mass spectrum: 1,2-BENZENEDIOL; EI-MS
Name: PYROCATECHOL
Formula: C6H6O2
Exact mass: 110.03678
Instrument type: EI-MS
m/z	relative intensity
26	15
27	44
28	5
29	20
37	11
38	24
39	39
40	3
49	8
50	26
51	30
52	23
53	55
54	21
55	29
61	7
62	15
63	97
64	193
65	15
66	5
79	4
80	3
81	83
82	30
92	66
93	6
109	19
110	999
111	73
112	6
