Mass spectrum: NORCAMPHOR; EI-MS
Name: BICYCLO(2.2.1)HEPTAN-2-ONE
Formula: C7H10O
Exact mass: 110.07316
Instrument type: EI-MS
m/z	relative intensity
15	20
26	36
27	216
28	44
29	32
37	13
38	35
39	341
40	84
41	428
42	41
43	30
50	34
51	45
52	29
53	120
54	375
55	69
56	17
63	14
65	39
66	999
67	938
68	212
69	22
77	21
79	56
80	16
81	151
82	52
84	12
91	13
92	42
93	13
95	54
109	49
110	414
111	36
