Mass spectrum: 1,2-DIAMINOCYCLOHEXANE; EI-MS
Formula: C6H14N2
Exact mass: 114.1157
Instrument type: EI-MS
m/z	relative intensity
28	390
30	430
43	695
56	999
69	510
70	305
97	517
114	218
