Mass spectrum: ACETIC ACID ETHYL ESTER; EI-MS
Name: ETHYL ACETATE
Formula: C4H8O2
Exact mass: 88.05243
Instrument type: EI-MS
m/z	relative intensity
15	57
27	69
29	158
42	51
43	999
44	35
45	145
61	138
70	88
73	42
88	33
