Mass spectrum: 2,2,4-TRIMETHYL-1,2-DIHYDROQUINOLINE; EI-MS
Formula: C12H15N
Exact mass: 173.12045
Instrument type: EI-MS
m/z	relative intensity
15	43
17	12
18	48
26	2
27	31
38	10
39	35
41	2
42	29
43	333
51	19
58	11
63	19
65	29
65.5	12
71.5	2
77	41
77.5	13
78	14
78.5	2
79	40
85.5	17
89	22
91	3
101	12
102	13
103	13
115	9
116	33
117	18
118	12
127	2
128	33
129	26
130	35
131	1
140	13
141	12
142	34
143	6
144	14
154	16
156	55
157	17
158	999
159	126
160	13
172	25
