Mass spectrum: 2-PROPYLCYCLOHEXYL ACETATE; EI-MS
Formula: C11H20O2
Exact mass: 184.14633
Instrument type: EI-MS
m/z	relative intensity
43	160
54	29
55	24
57	2
58	11
66	28
67	110
68	9
69	43
71	34
72	10
80	3
81	344
82	999
83	104
86	1
94	13
95	255
96	202
99	2
100	21
107	24
109	32
123	1
124	787
125	91
142	24
