Mass spectrum: METHANOL; EI-MS
Name: METHYL ALCOHOL
Formula: CH4O
Exact mass: 32.02621
Instrument type: EI-MS
m/z	relative intensity
12	13
13	25
14	51
15	247
17	15
18	14
28	50
29	512
30	70
31	999
32	737
33	16
