Mass spectrum: 2,2'-METHYLENE-BIS-(4-METHYL-6-TERT-BUTYLPHENOL); EI-MS
Formula: C23H32O2
Exact mass: 340.24023
Instrument type: EI-MS
m/z	relative intensity
29	101
41	237
43	63
53	25
55	48
57	314
77	64
79	45
91	147
93	36
103	28
105	142
107	34
108	26
115	55
116	27
117	45
118	31
119	119
121	310
122	28
127	271
128	42
129	30
131	29
133	182
134	41
135	69
137	57
141	147
142	35
145	38
146	29
147	53
148	29
149	527
150	62
155	162
156	38
159	20
161	696
162	118
163	63
164	690
165	98
175	54
176	65
177	999
178	146
179	24
228	32
269	44
283	46
284	189
285	39
325	25
340	669
341	155
342	20
