Mass spectrum: ELAIDIC ACID TRIMETHYLSILYL ESTER; EI-MS
Name: TRANS-9-OCTADECENOIC ACID TRIMETHYLSILYL ESTER
Formula: C21H42O2Si
Exact mass: 354.29541
Instrument type: EI-MS
m/z	relative intensity
43	212
55	418
67	268
69	23
73	999
75	709
81	200
82	21
84	194
95	181
96	277
97	17
98	165
110	133
117	630
123	10
129	383
131	113
132	133
145	21
199	91
339	219
340	57
