Mass spectrum: PARA-BROMOACETOPHENONE; EI-MS
Formula: C8H7BrO
Exact mass: 197.96803
Instrument type: EI-MS
m/z	relative intensity
43	82
75	44
76	69
77	21
104	28
155	278
156	22
157	271
158	21
183	999
185	975
186	74
198	267
199	26
200	265
201	26
