Mass spectrum: (4BETA)-HYDROXYMETHYL-1(2H)-METHYLENE-3,4,(4ABETA),5,8,(8AALPHA)-HEXAHYDRONAPHTHALENE-6(7H)-ONE ETHYLENE ACETAL; EI-MS
Formula: C14H22O3
Exact mass: 238.15689
Instrument type: EI-MS
m/z	relative intensity
11	160
17	76
18	365
27	2
28	348
29	26
32	86
39	3
41	64
42	65
43	52
53	3
55	118
67	31
73	26
77	4
79	48
81	20
83	22
86	26
87	90
91	60
93	37
99	999
100	68
105	37
119	28
121	2
122	22
134	30
152	23
155	34
156	38
167	28
176	34
238	14
239	22
