Mass spectrum: PHENYLHYDRAZONE ISOBUTYRALDEHYDE; EI-MS
Name: ISOBUTYRALDEHYDE PHENYLHYDRAZONE
Formula: C10H14N2
Exact mass: 162.1157
Instrument type: EI-MS
m/z	relative intensity
27	192
29	69
39	277
41	14
43	69
51	154
52	62
65	62
66	192
77	346
91	127
92	73
93	770
94	85
105	82
106	42
107	85
117	62
118	92
119	12
120	54
133	354
134	150
147	3
161	38
162	999
163	127
