Mass spectrum: 1-(1-ETHOXY)ETHOXY-3-METHYL-2,4-PENTADIENE; EI-MS
Formula: C10H18O2
Exact mass: 170.13068
Instrument type: EI-MS
m/z	relative intensity
27	99
28	21
29	50
31	2
39	106
40	25
41	182
42	3
43	143
44	16
45	865
46	2
50	13
51	33
52	18
53	12
54	74
55	88
65	42
66	3
67	999
68	63
73	185
77	6
79	110
80	28
81	240
82	89
83	83
91	25
93	44
97	2
111	32
115	14
125	13
126	81
