Mass spectrum: 4-HYDROXY-7-METHOXY-3-PHENYLCHROMAN (4D); EI-MS
Formula: C16H16O3
Exact mass: 256.10994
Instrument type: EI-MS
m/z	relative intensity
39	47
41	17
50	16
51	6
52	26
53	22
55	15
63	4
64	16
65	52
66	10
69	2
76	17
77	78
78	76
79	4
81	13
91	63
92	23
95	3
103	62
104	181
105	116
106	4
107	11
108	18
115	12
117	1
134	11
149	22
150	15
151	72
152	999
153	108
154	11
161	2
165	19
237	32
238	34
256	11
257	72
