Mass spectrum: BENZALDEHYDE DIBUTYL ACETAL; EI-MS
Formula: C15H24O2
Exact mass: 236.17763
Instrument type: EI-MS
m/z	relative intensity
18	27
27	79
28	14
29	26
39	45
41	222
42	13
43	3
51	45
52	10
55	21
56	2
57	211
77	148
78	33
79	23
80	12
89	11
90	16
91	2
103	10
105	128
106	22
107	999
108	80
123	10
163	675
164	85
