Mass spectrum: 4-CHLORO-3-NITROBENZOIC ACID METHYL ESTER; EI-MS
Formula: C8H6ClNO4
Exact mass: 214.99854
Instrument type: EI-MS
m/z	relative intensity
44	46
50	46
51	52
62	2
63	121
73	28
74	92
75	37
77	57
84	23
109	28
110	23
111	28
112	40
126	75
137	2
138	393
139	23
140	115
153	6
154	196
155	28
156	28
169	2
184	999
185	219
186	352
187	3
215	358
217	92
