Mass spectrum: 3-METHYL-3-(3-HYDROXY-3-METHYLBUTOXY)BUTANOL; EI-MS
Formula: C10H22O3
Exact mass: 190.15689
Instrument type: EI-MS
m/z	relative intensity
29	25
30	50
31	86
39	5
41	273
43	281
45	134
46	2
55	50
56	78
57	77
58	3
59	533
68	45
69	999
70	13
71	169
72	17
73	133
77	3
85	31
86	47
87	203
89	58
90	42
103	11
119	13
121	2
145	125
