Mass spectrum: 4-METHYL-2-PENTENOIC ACID TRIMETHYLSILYL ESTER; EI-MS
Formula: C9H18O2Si
Exact mass: 186.10761
Instrument type: EI-MS
m/z	relative intensity
40	9
41	9
43	37
44	4
45	104
47	71
51	23
53	5
54	28
55	37
59	37
61	4
67	33
68	33
69	37
72	1
73	611
74	75
75	999
76	7
77	33
79	14
81	109
82	2
85	47
95	23
96	341
97	19
98	9
99	80
101	9
111	3
116	18
117	9
125	37
126	5
127	127
128	14
129	37
131	3
141	18
143	85
144	9
153	1
155	23
170	90
171	739
172	10
173	28
186	142
187	9
