Mass spectrum: ETHYLENE GLYCOL MONO-TERT-BUTYL ETHER; EI-MS
Formula: C6H14O2
Exact mass: 118.09938
Instrument type: EI-MS
m/z	relative intensity
15	34
27	72
28	23
29	176
31	88
39	61
40	14
41	294
42	31
43	63
45	161
55	27
56	118
57	999
58	44
59	676
60	23
87	58
88	14
103	261
104	19
