Mass spectrum: DIISOPROPYL ETHER; EI-MS
Formula: C6H14O
Exact mass: 102.10447
Instrument type: EI-MS
m/z	relative intensity
27	53
28	18
29	26
31	2
39	48
41	115
42	39
43	40
44	43
45	999
46	36
59	9
69	32
87	223
