Mass spectrum: PREGESTERONE; EI-MS
Formula: C21H30O2
Exact mass: 314.22458
Instrument type: EI-MS
m/z	relative intensity
53	125
55	265
67	232
71	112
77	207
79	320
81	207
85	11
91	324
93	240
95	223
105	23
107	219
109	171
119	138
121	17
122	125
123	167
124	999
125	14
131	117
133	198
134	110
135	15
137	106
145	106
147	221
149	14
159	104
173	119
190	140
191	28
229	372
230	100
244	148
272	48
273	106
314	972
315	246
316	50
