Mass spectrum: ETHOXY DIMETHOXY PHENYLSILANE; EI-MS
Formula: C10H16O3Si
Exact mass: 212.08687
Instrument type: EI-MS
m/z	relative intensity
59	151
77	188
84	93
90	230
91	404
104	249
105	111
107	611
119	777
120	114
121	98
123	119
134	827
135	205
136	115
137	252
167	999
168	165
212	396
