Mass spectrum: 3-METHYL-3-BUTEN-2-ONE; EI-MS
Formula: C5H8O
Exact mass: 84.05751
Instrument type: EI-MS
m/z	relative intensity
39	223
41	999
42	16
43	761
69	361
70	16
84	233
