Mass spectrum: BUTYL METHYL KETONE; EI-MS
Name: 2-HEXANONE
Formula: C6H12O
Exact mass: 100.08882
Instrument type: EI-MS
m/z	relative intensity
15	47
26	12
27	85
28	25
29	165
39	58
41	157
42	37
43	999
44	22
55	16
57	173
58	493
59	27
71	52
72	13
85	74
100	91
101	26
