Mass spectrum: 3-PHENYLPROPIONIC ACID METHYL ESTER; EI-MS
Formula: C10H12O2
Exact mass: 164.08373
Instrument type: EI-MS
m/z	relative intensity
15	54
27	43
39	68
50	38
51	100
52	28
59	21
63	30
65	86
77	131
78	110
79	104
91	653
92	54
103	111
104	999
105	415
106	29
107	41
131	28
133	98
164	317
165	35
