Mass spectrum: 1-ETHYL-1,3,3-TRIMETHYL-1,2,3,4-TETRAHYDRO-GAMMA-CARBOLINE; EI-MS
Formula: C16H22N2
Exact mass: 242.1783
Instrument type: EI-MS
m/z	relative intensity
42	32
43	53
44	80
45	2
55	26
56	34
57	25
77	2
99	10
128	26
129	26
130	3
154	37
155	33
156	49
157	3
170	21
171	78
172	21
182	2
185	32
212	22
213	999
214	16
227	139
228	45
241	10
242	29
