Mass spectrum: METHYL PARA AMINO BENZOATE; EI-MS
Name: PARA AMINO BENZOIC ACID METHYL ESTER
Formula: C8H9NO2
Exact mass: 151.06333
Instrument type: EI-MS
m/z	relative intensity
27	17
29	75
31	131
38	25
39	99
40	32
41	50
50	13
51	13
52	28
62	18
63	54
64	48
65	311
66	34
90	13
91	34
92	377
93	40
119	51
120	999
121	94
122	18
150	15
151	381
152	35
