Mass spectrum: N-METHYL SUCCINIMIDE; EI-MS
Formula: C5H7NO2
Exact mass: 113.04768
Instrument type: EI-MS
m/z	relative intensity
14	26
15	62
26	111
27	247
28	999
29	87
30	41
41	22
42	72
43	49
55	103
56	536
57	97
58	117
84	24
85	25
113	472
114	39
