Mass spectrum: PROPYL 4-OXOPENTANOATE; EI-MS
Name: PROPYL LEVULINATE
Formula: C8H14O3
Exact mass: 158.09429
Instrument type: EI-MS
m/z	relative intensity
15	46
26	20
27	177
29	6
31	18
39	58
41	116
42	7
43	999
44	18
45	13
55	7
56	61
57	26
58	12
59	1
61	11
71	80
72	13
73	6
74	268
75	103
98	49
99	65
100	34
101	144
116	70
117	7
143	52
