Mass spectrum: 1,1,3,3-TETRAMETHYLDISILOXANE; EI-MS
Formula: C4H14OSi2
Exact mass: 134.05832
Instrument type: EI-MS
m/z	relative intensity
31	50
42	18
43	93
44	40
45	147
51	42
52	43
57	18
59	283
60	21
66	24
73	432
74	35
75	39
87	24
89	24
103	87
117	43
119	999
120	135
121	85
133	679
134	96
135	51
