Mass spectrum: CARVACROL; EI-MS
Name: 5-ISOPROPYL-2-METHYLPHENOL
Formula: C10H14O
Exact mass: 150.10447
Instrument type: EI-MS
m/z	relative intensity
41	20
43	12
74	40
77	3
79	36
87	24
91	164
105	2
107	80
115	28
117	60
121	1
135	999
136	80
150	356
151	40
