Mass spectrum: 3-METHOXYCARBONYLMETHYL-1-(TETRAHYDRO-2-FURANYL)-5-FLUOROURACIL; EI-MS
Formula: C11H13FN2O5
Exact mass: 272.08085
Instrument type: EI-MS
m/z	relative intensity
39	50
41	130
42	30
43	2
44	10
56	40
58	60
59	0
69	20
70	60
71	999
72	1
99	20
100	10
114	130
115	0
127	20
142	20
143	30
171	1
203	80
272	140
273	40
