Mass spectrum: META-METHOXYBENZALDEHYDE; EI-MS
Formula: C8H8O2
Exact mass: 136.05243
Instrument type: EI-MS
m/z	relative intensity
39	121
63	123
65	185
77	34
92	169
107	371
135	951
136	999
