Mass spectrum: ACETALDEHYDE BENZYL CIS-3-HEXENYL ACETAL; EI-MS
Formula: C15H22O2
Exact mass: 234.16198
Instrument type: EI-MS
m/z	relative intensity
27	31
29	24
39	53
41	114
43	36
51	16
53	13
55	116
56	12
65	63
67	39
68	11
69	16
77	27
79	14
82	63
83	79
89	12
90	13
91	999
92	98
105	11
113	15
127	26
135	139
136	12
