Mass spectrum: BIS(2-ETHYLHEXYL) PHTHALATE; EI-MS
Name: PHTHALIC ACID BIS(2-ETHYLHEXYL) ESTER
Formula: C24H38O4
Exact mass: 390.27701
Instrument type: EI-MS
m/z	relative intensity
43	13
56	23
57	113
69	11
70	133
71	143
82	14
83	63
84	42
112	129
113	198
114	17
149	999
150	119
151	13
167	607
168	55
279	104
280	19
390	1
