Mass spectrum: 1-CHLORONAPHTHALENE; EI-MS
Formula: C10H7Cl
Exact mass: 162.02363
Instrument type: EI-MS
m/z	relative intensity
50	14
51	14
63	48
68	19
74	21
75	29
76	13
77	28
81	62
82	20
98	11
99	14
101	24
125	18
126	116
127	242
128	27
162	999
163	118
164	329
165	38
