Mass spectrum: 3-(N-TRIFLUOROACETYL)AMINO-1,2,4-TRIAZOLE; EI-MS
Formula: C4H3F3N4O
Exact mass: 180.0259
Instrument type: EI-MS
m/z	relative intensity
50	81
51	92
53	61
67	10
69	650
111	427
149	51
180	999
181	56
