Mass spectrum: CHLOROMETHYL PHENYL SULFONE; EI-MS
Formula: C7H7ClO2S
Exact mass: 189.98553
Instrument type: EI-MS
m/z	relative intensity
27	18
28	21
48	12
49	4
50	16
51	381
52	20
63	2
65	35
69	11
74	42
75	3
76	31
77	829
78	137
91	3
97	40
125	177
126	15
141	999
142	119
143	74
160	27
190	24
191	29
192	88
