Mass spectrum: PARA BROMO ISOBUTYLBENZOATE; EI-MS
Formula: C11H13BrO2
Exact mass: 256.00989
Instrument type: EI-MS
m/z	relative intensity
27	37
29	83
39	36
41	145
43	32
44	12
50	100
51	18
55	35
56	999
57	76
65	12
73	23
74	29
75	153
76	158
77	30
104	19
155	159
156	12
157	158
183	621
184	48
185	601
186	46
200	116
201	214
202	130
203	209
204	15
