Mass spectrum: TRANS-BICYCLO(4.4.0)DECANE; EI-MS
Name: TRANS-DECALINE
Formula: C10H18
Exact mass: 138.14085
Instrument type: EI-MS
m/z	relative intensity
27	138
28	54
29	131
39	25
40	38
41	562
42	54
43	5
53	154
54	185
55	367
66	10
67	999
68	885
69	462
79	12
80	62
81	669
82	738
83	15
95	685
96	715
97	92
109	20
110	92
138	915
139	100
