Mass spectrum: DIHEXYL ETHER; EI-MS
Formula: C12H26O
Exact mass: 186.19837
Instrument type: EI-MS
m/z	relative intensity
27	106
28	36
29	147
31	18
39	46
40	12
41	251
42	111
43	999
44	34
45	27
53	13
54	14
55	161
56	382
57	176
67	15
69	104
70	16
71	14
73	11
82	16
83	164
84	294
85	865
86	58
101	13
103	44
115	33
186	10
