Mass spectrum: ALPHA-PHELLANDRENE; EI-MS
Name: 2-METHYL-5-(1-METHYLETHYL)-1,3-CYCLOHEXADIENE
Formula: C10H16
Exact mass: 136.1252
Instrument type: EI-MS
m/z	relative intensity
27	79
28	11
29	17
39	98
41	92
43	38
50	12
51	40
52	18
53	29
55	11
63	20
65	62
77	332
78	54
79	43
80	16
91	379
92	282
93	999
94	86
105	20
121	15
136	179
137	16
