Mass spectrum: 3,6,9-TRIOXADECANE-1-OL; EI-MS
Name: TRIETHYLENE GLYCOL MONOMETHYL ETHER
Formula: C7H16O4
Exact mass: 164.10486
Instrument type: EI-MS
m/z	relative intensity
15	94
19	33
26	13
27	79
28	86
29	242
30	18
31	266
33	12
41	14
42	12
43	105
44	96
45	999
46	23
57	16
58	330
59	794
60	36
73	12
75	32
87	42
88	32
89	168
90	12
101	12
102	22
103	31
119	21
