Mass spectrum: 1-BUTYL-5-HYDROXY-3-METHOXYCARBONYL-2,4,6,7-TETRAMETHYLINDOLE; EI-MS
Formula: C18H25NO3
Exact mass: 303.18344
Instrument type: EI-MS
m/z	relative intensity
28	9
29	97
41	77
43	5
140	61
151	60
158	44
200	6
202	82
214	85
215	92
216	7
222	34
228	326
229	63
243	8
246	45
260	203
261	44
271	9
272	197
288	44
289	49
302	9
303	999
304	229
