Mass spectrum: 5,5-DIMETHYL-2-PYRAZOLINE; EI-MS
Formula: C5H10N2
Exact mass: 98.0844
Instrument type: EI-MS
m/z	relative intensity
26	19
27	100
28	244
29	7
30	36
38	15
39	110
40	3
41	166
42	500
43	75
50	1
51	13
52	8
53	26
54	3
55	19
56	234
57	24
58	1
66	9
67	10
68	12
81	2
82	5
83	999
84	52
97	1
98	301
99	26
