Mass spectrum: N-ACETYLVALYLLEUCYLALANINE METHYL ESTER; EI-MS
Formula: C17H31N3O5
Exact mass: 357.22637
Instrument type: EI-MS
m/z	relative intensity
42	30
86	999
87	70
100	15
104	17
114	97
115	62
142	54
158	21
169	12
202	20
227	126
228	62
229	10
243	26
255	33
301	67
302	15
357	12
