Mass spectrum: 3-PHENYLINDOLE; EI-MS
Formula: C14H11N
Exact mass: 193.08915
Instrument type: EI-MS
m/z	relative intensity
27	22
29	16
30	21
39	2
41	27
42	13
43	37
51	1
55	25
56	13
57	19
63	2
67	11
69	15
70	11
71	1
77	18
81	11
82	17
83	2
83.5	36
84	14
85.5	15
89	6
90	64
91	16
95.5	38
96	2
96.5	107
97	24
115	15
139	2
163	23
164	26
165	155
166	3
190	40
191	64
192	78
193	999
194	137
195	11
