Mass spectrum: 5-FLUORO-1-(TRANS-3-METHOXYTETRAHYDRO-2-FURANYL)-3-METHYLURACIL; EI-MS
Formula: C10H13FN2O4
Exact mass: 244.08594
Instrument type: EI-MS
m/z	relative intensity
41	90
42	100
46	110
57	2
59	100
69	240
70	60
71	4
72	570
73	240
100	110
101	999
102	90
144	30
145	20
184	0
212	110
244	70
245	10
