Mass spectrum: 5-METHYL-3-HEXANONE; EI-MS
Formula: C7H14O
Exact mass: 114.10447
Instrument type: EI-MS
m/z	relative intensity
15	20
26	20
27	250
28	21
29	512
39	134
41	301
42	61
43	142
53	12
55	20
56	25
57	999
58	39
72	67
85	219
86	22
99	17
114	100
