Mass spectrum: 3-ETHYL-1,1,3,5,8-PENTAMETHYL-5H,6H-PYRANO(4,5-F)INDAN; EI-MS
Formula: C19H28O
Exact mass: 272.21402
Instrument type: EI-MS
m/z	relative intensity
215	449
229	999
230	238
243	89
257	314
272	209
