Mass spectrum: (4S,5S)-2-(BROMOMETHYL)-4,5-BIS(METHOXYMETHYL)-1,3-DIOXOLANE; EI-MS
Formula: C8H15BrO4
Exact mass: 254.01537
Instrument type: EI-MS
m/z	relative intensity
39	25
41	81
42	39
43	23
44	37
45	532
55	89
57	4
58	64
59	377
68	35
69	12
70	79
71	195
73	74
75	3
82	35
83	37
84	106
85	42
87	675
88	30
94	20
100	4
101	42
103	52
115	121
116	7
129	143
151	35
153	25
161	999
162	84
163	22
179	25
209	9
211	64
