Mass spectrum: 3-HEXANONE; EI-MS
Formula: C6H12O
Exact mass: 100.08882
Instrument type: EI-MS
m/z	relative intensity
15	27
26	52
27	433
28	55
29	551
38	14
39	142
40	11
41	265
42	81
43	999
44	28
53	12
55	30
56	19
57	879
58	24
71	561
72	55
85	22
100	280
101	18
