Mass spectrum: DIBUTYL SULFIDE; EI-MS
Formula: C8H18S
Exact mass: 146.11292
Instrument type: EI-MS
m/z	relative intensity
15	15
26	23
27	294
28	68
29	517
30	13
35	17
39	166
40	18
41	487
42	31
43	41
45	110
46	78
47	202
48	20
49	18
53	30
54	14
55	266
56	956
57	318
58	23
59	43
60	46
61	999
62	34
63	37
73	13
75	36
88	22
89	128
90	257
91	125
92	15
103	136
104	14
117	45
146	333
147	31
148	18
