Mass spectrum: ETHYL ACRYLATE; EI-MS
Formula: C5H8O2
Exact mass: 100.05243
Instrument type: EI-MS
m/z	relative intensity
43	92
44	13
45	108
53	12
54	44
55	999
56	130
57	18
58	49
72	16
73	108
82	50
85	52
99	90
100	34
