Mass spectrum: HEPTANAL ETHYL ISOPENTYL ACETAL; EI-MS
Name: HEPTANAL ETHYL ISOAMYL ACETAL
Formula: C14H30O2
Exact mass: 230.22458
Instrument type: EI-MS
m/z	relative intensity
27	106
28	22
29	214
31	4
39	48
41	225
42	51
43	68
44	60
45	23
47	84
53	1
55	294
56	22
57	79
58	1
59	20
69	56
70	27
71	999
72	68
75	141
85	33
97	11
143	299
144	26
145	292
146	2
185	47
