Mass spectrum: 1,2-DIBROMOPROPANE; EI-MS
Formula: C3H6Br2
Exact mass: 199.88363
Instrument type: EI-MS
m/z	relative intensity
41	359
42	30
43	19
45	18
77	13
79	11
81	12
82	13
93	34
95	31
105	18
107	40
109	19
112	23
117	15
119	19
121	999
122	42
123	999
124	36
187	10
200	16
202	28
204	13
