Mass spectrum: ACETIC ACID META-TOLYL ESTER; EI-MS
Name: META-CRESOL ACETATE
Formula: C9H10O2
Exact mass: 150.06808
Instrument type: EI-MS
m/z	relative intensity
15	36
27	27
38	12
39	60
42	10
43	214
50	21
51	44
52	24
53	30
63	21
65	21
77	95
78	30
79	95
80	53
90	59
91	33
106	11
107	353
108	999
109	76
150	115
151	12
