Mass spectrum: PTEROCARPIN; EI-MS
Formula: C17H14O5
Exact mass: 298.08412
Instrument type: EI-MS
m/z	relative intensity
107	20
115	20
133	30
139	20
141	20
148	200
149	50
152	20
161	80
162	140
169	20
175	50
197	20
267	20
283	100
297	150
298	999
299	160
