Mass spectrum: DODECANE; EI-MS
Formula: C12H26
Exact mass: 170.20345
Instrument type: EI-MS
m/z	relative intensity
27	193
28	115
29	308
39	95
41	473
42	131
43	995
44	25
53	21
54	21
55	186
56	157
57	999
58	33
69	37
70	83
71	476
72	25
83	18
84	48
85	246
86	17
98	38
99	33
112	20
113	27
127	18
170	29
