Mass spectrum: 5-AMINOISOXAZOLE; EI-MS
Formula: C3H4N2O
Exact mass: 84.03236
Instrument type: EI-MS
m/z	relative intensity
16	100
17	33
25	31
26	100
27	143
28	599
29	658
30	80
38	121
39	211
40	656
41	974
42	90
43	63
44	762
51	29
52	154
53	123
54	23
55	13
56	62
57	111
66	22
67	107
68	482
69	14
70	28
84	999
85	154
86	35
