Mass spectrum: N-ACETYL-ALANINE METHYLESTER; EI-MS
Formula: C6H11NO3
Exact mass: 145.07389
Instrument type: EI-MS
m/z	relative intensity
14	15
15	263
26	13
27	4
28	102
29	23
30	11
31	2
33	17
41	19
42	112
43	29
44	999
45	23
55	12
59	2
70	12
86	112
87	16
88	4
102	14
145	28
