Mass spectrum: CIS-3-HEXENYL BUTYRATE; EI-MS
Formula: C10H18O2
Exact mass: 170.13068
Instrument type: EI-MS
m/z	relative intensity
15	21
26	19
27	281
28	103
29	124
31	16
38	13
39	172
40	47
41	515
42	90
43	776
44	27
45	15
51	15
53	64
54	91
55	184
56	15
65	20
66	14
67	990
68	58
69	25
71	886
72	37
80	12
81	65
82	999
83	88
89	16
