Mass spectrum: METHYL OCTANOATE; EI-MS
Formula: C9H18O2
Exact mass: 158.13068
Instrument type: EI-MS
m/z	relative intensity
15	73
27	141
29	162
31	14
39	95
41	257
42	80
43	257
45	17
53	17
55	181
56	27
57	151
59	139
67	12
69	59
70	12
73	16
74	999
75	71
83	18
84	25
87	379
88	39
97	11
98	13
101	55
115	61
127	78
129	22
