Mass spectrum: 5-AMINO-2-MESYLPYRIMIDINE; EI-MS
Formula: C5H7N3O2S
Exact mass: 173.0259
Instrument type: EI-MS
m/z	relative intensity
36	18
38	29
39	100
40	47
41	327
42	81
43	70
44	2
45	57
46	21
47	16
48	3
49	3
50	3
51	11
52	4
53	76
54	28
55	149
56	6
57	15
58	2
59	4
60	1
62	2
63	57
64	104
65	2
66	171
67	999
68	80
69	2
70	7
71	9
72	6
73	0
74	5
75	6
76	3
77	1
78	2
79	53
80	9
81	1
82	214
83	490
84	28
85	1
87	4
90	2
91	2
93	1
94	541
95	63
96	8
97	1
98	3
99	5
102	4
103	0
104	6
106	6
108	11
109	4
110	867
111	949
112	61
113	1
115	14
120	2
122	5
123	0
124	10
125	4
126	5
136	0
137	2
138	2
139	20
143	0
141	4
142	10
145	3
149	2
150	2
152	2
153	3
158	3
159	2
160	2
167	4
173	59
174	67
175	37
176	4
