Mass spectrum: CARISOPRODOL; EI-MS
Formula: C12H24N2O4
Exact mass: 260.17361
Instrument type: EI-MS
m/z	relative intensity
26	8
27	88
28	67
29	9
30	13
31	67
38	1
39	1
40	20
41	274
42	87
43	5
44	274
45	95
46	15
47	1
51	9
52	9
53	34
54	2
55	774
56	377
57	120
58	999
59	119
60	29
61	9
62	39
63	15
64	6
65	9
66	1
67	41
68	34
69	179
70	12
71	289
72	109
73	39
74	2
75	49
76	9
77	9
79	1
80	6
81	69
82	19
83	29
84	239
85	59
86	139
87	1
88	49
89	9
90	5
91	0
92	11
93	1
94	1
95	2
96	101
97	554
98	114
99	0
100	19
101	59
102	89
103	1
104	435
105	22
106	4
112	0
113	9
114	139
115	91
116	1
117	14
118	9
119	3
123	1
131	8
132	9
133	2
134	0
140	5
142	2
143	2
144	4
145	8
147	11
157	20
158	41
159	44
160	7
174	6
175	1
176	59
177	9
184	94
185	2
186	38
187	9
199	11
200	0
202	16
217	5
245	171
246	3
247	2
260	28
261	8
