Mass spectrum: 6-TRIMETHYLSILYLMETHYL-2,3,3A,4,7,7A-HEXAHYDROINDEN-1-ONE; EI-MS
Formula: C13H22OSi
Exact mass: 222.14399
Instrument type: EI-MS
m/z	relative intensity
45	130
59	114
73	999
75	140
91	177
92	183
105	201
106	204
117	254
131	106
132	143
133	138
141	93
148	87
179	148
181	108
193	122
194	140
207	307
221	201
222	579
223	164
