Mass spectrum: N-CYCLOHEXYLCYCLOOCTANIMINE; EI-MS
Formula: C14H25N
Exact mass: 207.1987
Instrument type: EI-MS
m/z	relative intensity
41	147
43	104
54	122
55	284
58	92
67	107
82	176
83	337
96	103
97	149
98	175
110	125
123	140
124	180
126	500
136	264
139	202
150	135
152	642
153	112
164	765
165	248
166	134
178	537
179	999
180	138
192	327
206	262
207	778
208	146
