Mass spectrum: 1,2-DIMETHOXYBENZENE; EI-MS
Name: VERATROLE
Formula: C8H10O2
Exact mass: 138.06808
Instrument type: EI-MS
m/z	relative intensity
15	41
26	34
27	15
28	23
29	14
31	22
37	13
38	39
39	69
41	141
50	66
51	129
52	179
53	27
54	13
55	32
62	22
63	76
64	54
65	147
66	12
67	63
74	12
76	13
77	278
78	28
79	20
80	70
92	40
93	39
95	438
96	30
121	12
122	19
123	416
124	32
138	999
139	93
