Mass spectrum: ALPHA-PINENE OXIDE; EI-MS
Formula: C10H16O
Exact mass: 152.12012
Instrument type: EI-MS
m/z	relative intensity
15	37
26	13
27	281
29	124
38	16
39	423
40	57
41	650
42	57
43	557
44	20
45	18
50	16
51	69
52	26
53	215
54	120
55	314
56	30
57	13
63	15
65	78
66	26
67	999
68	70
69	258
70	24
71	18
77	113
78	18
79	143
80	21
81	247
82	315
83	427
84	74
91	104
92	16
93	178
94	108
95	212
96	81
97	25
98	19
105	13
107	38
108	102
109	501
110	71
111	36
119	61
123	21
137	282
138	21
