Mass spectrum: DIBUTYL PHTHALATE; EI-MS
Formula: C16H22O4
Exact mass: 278.15181
Instrument type: EI-MS
m/z	relative intensity
50	16
54	18
55	68
56	73
65	32
76	31
77	14
93	3
104	42
105	26
121	27
122	2
123	14
149	999
150	110
151	1
177	14
205	116
206	16
223	16
224	20
278	55
279	15
