Mass spectrum: 2,6-DIMETHYL-3,5-DIPHENYL-4-PYRONE; EI-MS
Name: 2,6-DIMETHYL-3,5-DIPHENYL-GAMMA-PYRONE
Formula: C19H16O2
Exact mass: 276.11503
Instrument type: EI-MS
m/z	relative intensity
27	55
28	195
29	35
31	15
32	45
38	15
39	125
40	20
41	55
42	20
43	320
44	35
45	10
50	30
51	95
52	25
53	25
55	150
56	25
57	20
62	30
63	140
64	35
65	75
66	15
67	25
69	20
74	20
75	30
76	30
77	140
78	60
79	30
81	20
82	10
83	20
85	15
87	20
88	35
89	205
90	220
91	85
92	25
93	20
95	20
101	30
102	40
103	100
104	45
105	45
107	20
109	20
111	15
113	25
114	50
115	490
116	190
117	35
118	225
119	35
126	20
127	50
128	35
129	20
130	10
131	30
133	40
136	25
137	20
138	50
139	20
141	20
143	15
145	20
149	20
150	15
151	15
152	20
160	30
161	50
162	15
163	15
164	15
165	30
176	20
177	15
178	30
179	20
189	40
190	30
191	20
197	20
200	20
201	20
202	60
203	60
204	35
205	70
206	20
215	45
216	20
218	25
219	15
230	15
231	20
233	30
234	20
235	45
236	15
247	25
248	30
257	15
261	30
262	20
276	999
277	840
278	200
279	35
