Mass spectrum: TRIPHENYL PHOSPHINE; EI-MS
Formula: C18H15P
Exact mass: 262.09114
Instrument type: EI-MS
m/z	relative intensity
18	42
39	48
50	26
51	109
57	61
63	20
65	19
77	39
78	11
81	40
83	16
107	200
108	341
109	31
115	49
128	16
131	23
133	39
139	18
141	17
152	88
153	19
154	23
157	49
170	28
181	13
183	616
184	147
185	93
260	15
261	164
262	999
263	208
264	18
