Mass spectrum: 2-ETHOXYETHYL ACETAE; EI-MS
Name: CELLOSOLVE ACETATE
Formula: C6H12O3
Exact mass: 132.07864
Instrument type: EI-MS
m/z	relative intensity
15	15
27	24
28	26
29	200
31	477
41	45
42	14
43	999
44	441
45	160
58	47
59	796
60	29
61	68
72	671
73	70
74	35
87	146
88	123
89	24
132	2
