Mass spectrum: FURFURYL ALCOHOL; EI-MS
Name: 2-FURANMETHANOL
Formula: C5H6O2
Exact mass: 98.03678
Instrument type: EI-MS
m/z	relative intensity
14	26
15	29
25	14
26	68
27	242
28	38
29	237
30	19
31	143
35	16
36	11
37	95
38	168
39	553
40	71
41	700
42	391
43	104
44	90
48.5	29
49	27
50	102
51	147
52	118
53	457
54	22
55	135
56	14
57	13
66	14
67	13
68	30
69	320
70	348
71	21
79	15
80	17
81	563
82	30
95	65
96	15
97	581
98	999
99	58
