Mass spectrum: PHENATURIC ACID; EI-MS
Name: PHENYLACETAMIDOACETIC ACID
Formula: C10H11NO3
Exact mass: 193.07389
Instrument type: EI-MS
m/z	relative intensity
51	95
52	30
55	35
56	249
57	14
58	12
59	10
61	13
62	53
63	110
64	86
65	294
66	20
73	95
74	308
75	20
76	20
77	19
84	13
88	16
89	91
90	76
91	999
92	742
93	68
102	20
117	24
118	13
119	16
149	44
193	46
194	12
