Mass spectrum: 9-FLUORENONE; EI-MS
Formula: C13H8O
Exact mass: 180.05751
Instrument type: EI-MS
m/z	relative intensity
151	24
152	225
153	33
180	999
181	146
182	11
