Mass spectrum: 1,2,3,4-TETRAHYDRO-CIS-3-PHENYL-1-NAPHTHOL; EI-MS
Formula: C16H16O
Exact mass: 224.12012
Instrument type: EI-MS
m/z	relative intensity
91	190
92	20
104	12
105	1
115	10
118	12
119	17
120	22
128	60
129	20
130	17
131	1
145	7
146	93
147	10
191	2
192	7
206	999
222	7
223	1
224	160
225	30
226	7
