Mass spectrum: 4-BUTOXYBENZALDEHYDE; EI-MS
Formula: C11H14O2
Exact mass: 178.09938
Instrument type: EI-MS
m/z	relative intensity
29	66
41	112
56	47
57	115
65	10
77	10
93	11
94	24
95	27
121	999
122	820
123	209
124	17
135	11
178	637
179	78
