Mass spectrum: 2.4-DIHYDROXYBENZOPHENONE; EI-MS
Formula: C13H10O3
Exact mass: 214.06299
Instrument type: EI-MS
m/z	relative intensity
108	18
136	37
137	551
138	4
168	10
197	26
213	976
214	999
215	142
216	15
