Mass spectrum: 5-ACETYL-3,4-DIHYDRO-6-HYDROXYPYRIMIDIN-4-ONE; EI-MS
Formula: C6H6N2O3
Exact mass: 154.03784
Instrument type: EI-MS
m/z	relative intensity
36	43
38	13
39	19
40	2
41	28
42	40
43	181
44	16
45	10
53	12
55	19
56	2
57	23
66	13
67	20
68	4
69	143
70	13
71	269
83	3
84	59
85	16
92	22
111	1
112	89
125	19
126	13
137	2
139	999
140	57
141	10
151	1
153	73
154	489
155	55
