Mass spectrum: PHENYLACETIC ACID BENZYL ESTER; EI-MS
Formula: C15H14O2
Exact mass: 226.09938
Instrument type: EI-MS
m/z	relative intensity
26	20
27	100
28	34
29	77
31	34
38	45
39	164
41	61
43	58
50	191
51	385
52	103
53	67
55	71
57	39
62	46
63	102
65	202
74	65
77	832
78	179
79	999
80	90
89	87
90	74
91	610
92	137
105	223
106	166
107	392
108	586
109	50
111	52
115	57
117	213
118	142
128	28
136	31
