Mass spectrum: 4,6-DINITRO-ORTHO-CRESOL; EI-MS
Formula: C7H6N2O5
Exact mass: 198.02767
Instrument type: EI-MS
m/z	relative intensity
43	52
46	38
50	242
51	52
52	242
53	419
54	32
55	4
61	29
62	79
63	114
64	7
65	181
66	139
67	213
68	4
69	53
74	109
75	82
76	10
77	247
78	102
79	65
80	3
93	172
94	40
104	40
105	45
106	222
107	87
121	415
122	4
134	29
152	53
168	128
182	2
198	999
199	85
