Mass spectrum: 5,7-DIMETHYL-1,2,3,4-TETRAHYDROPYRIMIDO(1,6-A)INDOLE-2-CARBALDEHYDE; EI-MS
Formula: C14H16N2O
Exact mass: 228.12626
Instrument type: EI-MS
m/z	relative intensity
55	88
57	134
69	171
81	6
115	52
143	64
156	61
157	5
158	999
159	49
170	82
171	70
172	45
199	19
227	30
228	930
