Mass spectrum: 1,1-DIETHYL-1,2,2-TRIMETHYLDISILANE; EI-MS
Formula: C7H20Si2
Exact mass: 160.11035
Instrument type: EI-MS
m/z	relative intensity
43	75
44	21
45	151
55	13
57	17
58	17
59	170
60	13
69	13
71	58
72	53
73	992
74	90
75	38
85	29
86	17
87	36
88	30
89	81
90	11
100	37
101	999
102	120
103	418
104	57
105	29
115	11
116	19
117	81
118	12
131	91
132	15
144	22
145	46
160	195
161	35
162	16
