Mass spectrum: 1,2-BENZENEDICARBALDEHYDE; EI-MS
Name: ORTHO-PHTHALALDEHYDE
Formula: C8H6O2
Exact mass: 134.03678
Instrument type: EI-MS
m/z	relative intensity
26	18
27	59
29	104
37	51
38	59
39	100
49	39
50	300
51	494
52	113
53	47
61	31
62	39
63	45
73	25
74	113
75	62
76	101
77	845
78	177
104	33
105	999
106	302
120	50
133	76
134	356
135	31
