Mass spectrum: ALLYL ACETATE; EI-MS
Formula: C5H8O2
Exact mass: 100.05243
Instrument type: EI-MS
m/z	relative intensity
14	12
15	77
18	38
26	29
27	68
28	23
29	57
31	13
37	12
38	29
39	201
40	42
41	207
42	51
43	999
44	39
55	10
57	109
58	145
61	32
72	13
