Mass spectrum: DIETHYL FUMARATE; EI-MS
Formula: C8H12O4
Exact mass: 172.07356
Instrument type: EI-MS
m/z	relative intensity
15	21
26	125
27	259
29	377
30	15
31	18
42	13
43	69
45	117
53	130
54	171
55	225
56	10
71	129
72	24
81	63
82	140
98	21
99	598
100	115
117	33
125	19
126	274
127	999
128	97
143	36
145	23
