Mass spectrum: 2-BUTOXY-3-PYRIDINECARBOXYLIC ACID TRIMETHYLSILYL ESTER; EI-MS
Formula: C13H21NO3Si
Exact mass: 267.12907
Instrument type: EI-MS
m/z	relative intensity
41	95
42	1
45	3
55	8
56	27
57	123
58	6
61	2
66	5
67	1
72	5
73	100
74	9
75	207
76	16
77	19
78	4
79	5
80	5
83	2
89	2
92	9
93	130
94	39
95	6
96	3
97	2
103	6
104	1
105	2
106	17
107	9
108	9
109	3
117	27
118	9
119	3
120	22
121	11
122	517
123	47
124	39
125	7
126	5
132	5
133	2
134	165
135	29
136	38
137	6
138	9
139	4
143	23
145	12
146	3
147	2
148	45
149	26
150	487
151	116
152	341
153	53
154	30
155	5
156	1
159	5
165	54
166	210
167	313
168	82
169	19
170	5
176	16
177	5
178	105
179	14
180	46
181	14
182	14
183	7
184	9
188	6
195	82
196	999
197	402
198	111
199	11
208	4
209	29
210	85
211	173
212	120
213	22
214	6
222	11
223	20
224	129
225	26
226	8
236	3
237	27
238	30
239	6
240	1
249	1
250	2
252	143
253	24
254	9
266	9
267	48
268	37
269	6
270	1
