Mass spectrum: DI-N-PROPYLAMINE; EI-MS
Formula: C6H15N
Exact mass: 101.12045
Instrument type: EI-MS
m/z	relative intensity
15	17
27	107
28	78
29	18
30	748
31	11
39	49
41	134
42	42
43	217
44	66
56	29
58	65
70	22
72	999
73	49
100	24
101	123
102	10
