Mass spectrum: BROMOACETIC ACID ETHYL ESTER; EI-MS
Name: ETHYL BROMOACETATE
Formula: C4H7BrO2
Exact mass: 165.96294
Instrument type: EI-MS
m/z	relative intensity
27	169
28	283
29	999
30	19
31	19
41	25
43	150
45	45
60	13
87	14
121	41
123	35
138	15
140	14
166	6
168	5
