Mass spectrum: 7-ETHYL-2-METHYLUNDECAN-1-OL; EI-MS
Formula: C14H30O
Exact mass: 214.22967
Instrument type: EI-MS
m/z	relative intensity
27	279
29	349
41	626
43	523
55	511
57	999
69	409
70	455
83	205
84	74
97	86
98	160
111	38
112	86
125	20
154	14
196	73
197	12
212	1
