Mass spectrum: N-(3-PHENYLPROPENOYL)PIPERIDINE; EI-MS
Formula: C14H17NO
Exact mass: 215.13101
Instrument type: EI-MS
m/z	relative intensity
27	48
28	123
41	82
42	5
51	107
55	48
63	27
69	3
77	296
84	409
102	82
103	46
104	89
117	12
124	32
131	999
132	182
138	364
149	32
159	1
172	18
173	19
186	12
198	4
214	296
215	659
216	114
