Mass spectrum: 1-OCTENE; EI-MS
Formula: C8H16
Exact mass: 112.1252
Instrument type: EI-MS
m/z	relative intensity
15	15
26	26
27	406
28	69
29	448
30	11
38	22
39	469
40	66
41	943
42	639
43	978
44	35
50	18
51	37
52	20
53	114
54	110
55	999
56	816
57	167
65	15
67	62
68	71
69	436
70	846
71	124
82	48
83	354
84	221
85	15
97	35
112	155
113	13
