Mass spectrum: PINANE; EI-MS
Name: 2,6,6-TRIMETHYLBICYCLO(3.1.1)HEPTANE
Formula: C10H18
Exact mass: 138.14085
Instrument type: EI-MS
m/z	relative intensity
41	30
43	19
55	184
56	47
57	36
67	174
68	205
69	296
70	57
80	77
81	402
82	801
83	560
84	50
94	111
95	999
96	396
97	56
109	98
110	64
123	254
124	27
138	41
