Mass spectrum: CINNAMALDEHYDE; EI-MS
Formula: C9H8O
Exact mass: 132.05751
Instrument type: EI-MS
m/z	relative intensity
39	15
51	34
52	19
54	15
55	19
61	10
63	11
76	11
77	346
78	365
79	29
89	11
91	27
101	13
102	76
103	570
104	394
105	42
131	989
132	999
133	99
