Mass spectrum: N-BUTYLACETAMIDE; EI-MS
Formula: C6H13NO
Exact mass: 115.09971
Instrument type: EI-MS
m/z	relative intensity
15	60
27	61
28	52
29	6
30	999
31	28
39	34
41	7
42	31
43	332
44	180
45	2
55	12
56	24
57	21
58	3
60	79
72	221
73	169
86	7
100	55
115	104
116	13
