Mass spectrum: 2,4-DIMETHYLACETOPHENONE; EI-MS
Formula: C10H12O
Exact mass: 148.08882
Instrument type: EI-MS
m/z	relative intensity
15	22
27	64
38	12
39	106
41	18
43	145
50	32
51	106
52	25
53	34
62	19
63	76
64	15
65	51
74	14
75	13
76	12
77	219
78	79
79	145
89	20
91	35
102	18
103	108
104	34
105	551
106	50
115	17
133	999
134	103
148	402
149	45
