Mass spectrum: 1-TRIMETHYLSILOXY-2-BUTENE; EI-MS
Formula: C7H16OSi
Exact mass: 144.09704
Instrument type: EI-MS
m/z	relative intensity
42	16
43	48
44	19
45	81
47	53
53	22
54	24
55	43
57	36
58	20
59	48
60	12
61	43
73	450
74	46
75	999
76	75
77	38
85	15
99	32
101	31
113	16
129	578
130	70
131	25
144	236
145	35
