Mass spectrum: METHYL 2-METHYLPROPENOATE; EI-MS
Name: METHYL METHACRYLATE
Formula: C5H8O2
Exact mass: 100.05243
Instrument type: EI-MS
m/z	relative intensity
40	35
42	60
45	14
53	20
54	13
55	84
56	35
57	13
59	115
68	19
69	999
70	52
82	26
85	50
99	115
100	458
101	28
