Mass spectrum: VALERIC ACID; EI-MS
Formula: C5H10O2
Exact mass: 102.06808
Instrument type: EI-MS
m/z	relative intensity
15	18
18	20
26	32
27	251
28	84
29	215
31	21
38	11
39	129
40	13
41	214
42	101
43	96
45	138
53	11
55	78
56	40
57	21
60	999
61	31
73	353
74	22
87	15
