Mass spectrum: 4-METHYL-6-HEPTEN-4-OLIDE; EI-MS
Formula: C8H12O2
Exact mass: 140.08373
Instrument type: EI-MS
m/z	relative intensity
55	26
57	79
67	15
69	12
71	123
79	18
81	29
85	18
99	999
100	61
125	19
140	5
