Mass spectrum: 6-METHYL-5-OCTEN-2-ONE; EI-MS
Formula: C9H16O
Exact mass: 140.12012
Instrument type: EI-MS
m/z	relative intensity
15	60
27	158
29	112
39	179
40	31
41	319
42	42
43	999
44	17
45	13
51	29
52	13
53	86
54	36
55	592
56	36
57	17
58	64
65	18
67	315
68	26
69	47
70	71
71	88
77	15
79	25
81	69
82	388
83	88
93	20
97	24
107	30
111	89
122	114
123	10
125	15
140	19
