Mass spectrum: METHYL 3-PHENYLPROPIONATE; EI-MS
Formula: C10H12O2
Exact mass: 164.08373
Instrument type: EI-MS
m/z	relative intensity
26	25
27	110
31	27
39	4
50	24
51	84
52	20
55	1
59	18
63	24
65	64
77	11
78	91
79	73
91	637
92	6
102	14
103	84
104	999
105	38
106	30
107	43
131	30
132	2
133	136
134	14
164	467
165	54
