Mass spectrum: GERANYL BUTYRATE; EI-MS
Formula: C14H24O2
Exact mass: 224.17763
Instrument type: EI-MS
m/z	relative intensity
18	26
27	116
29	50
39	88
40	22
41	561
42	38
43	361
44	13
51	12
53	85
54	15
55	41
56	10
65	18
66	14
67	113
68	486
69	999
70	45
71	471
72	22
77	21
79	32
80	142
81	64
82	10
83	11
84	21
85	20
91	23
92	57
93	291
95	16
105	13
107	42
108	21
121	158
122	16
123	23
136	139
137	30
154	15
155	15
