Mass spectrum: 3-ETHYL-4-METHYLPYRIDINE; EI-MS
Formula: C8H11N
Exact mass: 121.08915
Instrument type: EI-MS
m/z	relative intensity
29	16
38	19
39	228
40	11
41	56
51	130
52	24
53	100
63	58
64	12
65	71
77	165
78	18
79	150
80	10
91	45
92	23
93	76
105	20
106	999
107	97
120	260
121	676
122	63
