Mass spectrum: 3-INDOLEPROPIONIC ACID METHYL ESTER; EI-MS
Formula: C12H13NO2
Exact mass: 203.09463
Instrument type: EI-MS
m/z	relative intensity
39	25
41	35
42	30
51	7
56	25
65	25
89	25
103	3
115	75
129	30
130	999
131	9
142	30
143	75
144	60
186	1
203	211
204	25
