Mass spectrum: PARA-NITROBENZOIC ACID ISOBUTYL ESTER; EI-MS
Name: ISOBUTYL PARA-NITROBENZOATE
Formula: C11H13NO4
Exact mass: 223.08446
Instrument type: EI-MS
m/z	relative intensity
27	35
28	18
29	72
39	57
41	185
42	24
43	76
50	106
51	18
55	41
56	999
57	95
63	16
64	29
65	69
73	24
74	30
75	79
76	247
77	24
92	139
93	24
103	17
104	270
105	24
120	132
121	57
122	13
134	39
150	800
151	112
152	16
168	38
