Mass spectrum: 3-PHENYLPROPIONIC ACID; EI-MS
Formula: C9H10O2
Exact mass: 150.06808
Instrument type: EI-MS
m/z	relative intensity
18	31
26	14
27	88
29	11
31	13
38	20
39	112
41	28
42	19
43	23
44	12
45	98
50	76
51	181
52	49
53	19
55	18
60	34
62	16
63	58
64	13
65	128
73	20
74	21
75	19
76	17
77	190
78	168
79	91
89	24
91	999
92	80
102	16
103	94
104	521
105	177
106	12
107	11
131	14
150	302
151	34
152	10
