Mass spectrum: DICYCLOHEXYLAMINE; EI-MS
Formula: C12H23N
Exact mass: 181.18305
Instrument type: EI-MS
m/z	relative intensity
27	25
28	53
29	41
30	41
39	33
41	148
42	20
43	39
44	94
53	20
54	24
55	147
56	442
57	19
67	25
68	20
69	12
70	27
79	11
81	31
82	80
83	44
96	14
98	40
100	53
110	23
125	11
138	999
139	103
152	31
181	116
182	15
