Mass spectrum: PHENETHYLAMINE; EI-MS
Name: BETA-PHENYLETHYLAMINE
Formula: C8H11N
Exact mass: 121.08915
Instrument type: EI-MS
m/z	relative intensity
28	18
30	999
31	16
39	33
41	9
50	11
51	27
63	16
65	44
77	16
91	98
92	43
103	11
121	41
122	9
