Mass spectrum: ALPHA-TERPINEOL; EI-MS
Name: P-MENTH-1-EN-8-OL
Formula: C10H18O
Exact mass: 154.13577
Instrument type: EI-MS
m/z	relative intensity
15	17
27	81
28	11
29	60
31	81
39	103
40	24
41	174
42	14
43	341
45	20
51	26
52	13
53	80
54	49
55	126
57	11
58	11
59	999
60	33
65	30
66	14
67	149
68	150
69	36
71	78
77	71
78	16
79	107
80	56
81	311
82	23
91	55
92	152
93	513
94	74
95	140
96	73
105	22
107	50
108	23
121	383
122	40
136	418
137	53
139	69
154	4
