Mass spectrum: PHENYL-N-PROPYL KETONE; EI-MS
Formula: C10H12O
Exact mass: 148.08882
Instrument type: EI-MS
m/z	relative intensity
27	19
39	11
41	10
43	10
50	10
51	123
52	10
76	10
77	410
78	39
91	10
105	999
106	93
120	97
133	17
147	11
148	210
149	25
