Mass spectrum: ETHYLENE GLYCOL DIBUTYRATE; EI-MS
Formula: C10H18O4
Exact mass: 202.12051
Instrument type: EI-MS
m/z	relative intensity
27	13
41	29
42	26
43	369
44	13
70	22
71	999
72	48
86	51
114	26
115	96
