Mass spectrum: GERANIOL; EI-MS
Formula: C10H18O
Exact mass: 154.13577
Instrument type: EI-MS
m/z	relative intensity
41	329
42	255
68	471
69	999
70	72
80	39
121	37
