Mass spectrum: 2-TERT-BUTYLMERCAPTO-4-PHENYLPYRIDINE; EI-MS
Formula: C15H17NS
Exact mass: 243.10817
Instrument type: EI-MS
m/z	relative intensity
41	120
47	90
49	60
57	35
84	400
86	250
115	230
186	9
187	999
188	170
243	140
244	30
