Mass spectrum: 3-ACETOXYNITROBENZENE; EI-MS
Formula: C8H7NO4
Exact mass: 181.03751
Instrument type: EI-MS
m/z	relative intensity
14	15
15	49
30	22
38	23
39	38
42	14
43	999
44	36
50	13
62	14
63	46
64	26
65	48
81	18
92	10
93	77
109	16
123	10
139	68
181	53
