Mass spectrum: N-BUTYL ISOBUTYRATE; EI-MS
Formula: C8H16O2
Exact mass: 144.11503
Instrument type: EI-MS
m/z	relative intensity
15	19
26	20
27	248
28	83
29	323
31	26
39	115
40	24
41	498
42	94
43	999
44	35
45	13
55	85
56	560
57	455
58	20
59	11
70	15
71	902
72	47
73	44
88	42
89	833
90	40
101	65
