Mass spectrum: 3-CHLORO-2-METHYLPROPENE; EI-MS
Name: METHALLYL CHLORIDE
Formula: C4H7Cl
Exact mass: 90.02363
Instrument type: EI-MS
m/z	relative intensity
12	15
13	103
14	184
15	15
24	12
25	92
26	378
27	147
28	228
32	17
35	79
36	68
37	160
38	230
39	999
40	152
41	287
42	49
43	419
47	29
48	43
49	400
50	178
51	228
52	68
53	310
54	218
55	607
56	219
57	35
58	47
61	18
62	35
63	43
64	11
65	23
67	34
68	10
73	23
75	74
77	44
79	30
81	23
89	52
90	73
91	28
92	26
93	12
95	25
