Mass spectrum: ACETIC ACID OCTYL ESTER; EI-MS
Name: OCTYL ACETATE
Formula: C10H20O2
Exact mass: 172.14633
Instrument type: EI-MS
m/z	relative intensity
15	25
27	80
28	28
29	134
39	58
41	306
42	209
43	999
44	26
53	13
54	25
55	354
56	421
57	143
58	27
61	254
67	24
68	68
69	280
70	380
71	69
73	62
82	64
83	242
84	270
85	17
97	21
98	21
112	75
116	16
