Mass spectrum: PROPYL ETHER; EI-MS
Formula: C6H14O
Exact mass: 102.10447
Instrument type: EI-MS
m/z	relative intensity
27	22
28	14
31	28
41	8
42	26
43	999
44	36
45	1
55	41
59	36
73	240
74	1
102	114
103	11
