Mass spectrum: TRICOSANOIC ACID TRIMETHYLSILYL ESTER; EI-MS
Formula: C26H54O2Si
Exact mass: 426.38931
Instrument type: EI-MS
m/z	relative intensity
43	261
55	223
57	208
69	16
73	999
75	126
77	164
81	21
83	216
91	164
97	223
117	84
118	186
129	365
131	104
132	52
145	373
147	246
201	201
282	16
315	171
326	156
411	485
412	194
