Mass spectrum: 6-DIMETHYLAMINO-4,4-DIPHENYL-3-HEPTANONE; EI-MS
Formula: C21H27NO
Exact mass: 309.20926
Instrument type: EI-MS
m/z	relative intensity
25	12
26	26
27	52
28	31
29	53
30	17
32	22
37	1
38	10
39	32
40	14
41	4
42	78
43	28
44	57
45	1
50	14
51	30
52	14
53	0
54	12
55	19
56	50
57	0
58	24
59	4
60	2
61	0
62	10
63	20
64	10
65	2
66	2
67	5
68	4
69	0
70	39
71	34
72	999
73	6
74	11
75	14
76	22
77	0
78	22
79	12
80	4
81	1
82	13
83	8
84	10
85	2
86	12
87	10
88	10
89	3
90	4
91	67
92	14
93	0
94	2
95	3
96	2
101	1
102	19
103	19
104	11
105	3
106	10
107	4
108	2
109	0
114	2
115	42
116	13
117	0
118	4
119	3
121	10
122	0
123	1
126	10
127	12
128	2
129	27
130	14
131	12
132	0
139	14
140	2
141	9
142	0
143	11
144	4
145	10
146	1
150	9
151	14
152	29
153	1
154	4
155	2
159	1
160	0
163	11
164	14
165	104
166	3
167	37
168	14
169	4
175	0
176	18
177	11
178	70
179	7
180	72
181	16
182	4
187	1
188	4
189	14
190	12
191	2
192	16
193	20
194	14
195	2
196	4
200	2
201	11
202	1
203	13
204	15
205	16
206	1
207	19
208	13
209	2
215	1
216	9
217	4
218	8
219	1
220	8
221	10
222	11
223	3
224	14
231	6
232	3
233	0
234	1
235	4
236	4
248	0
249	3
250	4
251	2
252	0
263	3
264	2
265	18
266	1
267	2
294	17
295	8
296	0
309	2
310	1
