Mass spectrum: CHOLESTEROL ACETATE; EI-MS
Formula: C29H48O2
Exact mass: 428.36543
Instrument type: EI-MS
m/z	relative intensity
44	15
56	42
57	41
60	10
65	10
67	71
69	61
71	5
77	44
78	18
79	103
80	2
81	210
82	26
83	52
85	1
91	199
92	58
93	182
94	5
95	192
96	21
97	48
103	2
104	27
105	285
106	99
107	26
108	87
109	140
110	23
111	4
113	10
115	47
116	28
117	13
118	77
119	186
120	186
121	22
122	57
123	84
124	13
125	2
127	25
128	68
129	108
130	6
131	208
132	61
133	237
134	7
135	199
136	36
137	41
138	1
139	13
141	51
142	56
143	21
144	97
145	511
146	177
147	54
148	119
149	136
150	14
151	4
152	18
153	21
154	12
155	5
156	32
157	125
158	116
159	31
160	195
161	199
162	56
163	12
164	19
165	36
166	15
167	1
168	17
169	33
170	17
171	9
172	42
173	116
174	48
175	7
176	18
177	43
178	16
179	3
181	11
182	10
183	27
184	1
185	92
186	40
187	51
188	2
189	24
191	50
192	16
193	5
194	15
195	14
197	47
198	2
199	114
200	64
201	90
202	2
203	14
204	11
205	74
206	7
207	24
209	10
211	26
212	21
213	324
214	100
215	55
216	2
217	15
219	32
220	14
225	1
226	12
227	50
228	82
229	6
230	13
231	16
232	11
233	2
239	15
240	11
241	34
242	1
243	12
245	63
246	59
247	47
248	115
249	18
251	15
253	2
254	11
255	359
256	88
257	1
258	14
259	45
260	255
261	9
262	17
273	15
274	33
275	3
283	40
284	17
287	10
297	1
314	40
315	17
325	10
326	5
327	14
338	11
339	23
340	2
351	15
352	12
353	430
354	13
355	22
364	13
366	43
367	3
368	999
369	318
370	49
