Mass spectrum: 4-OXO-4H-PYRIDO(1,2-A)PYRIMIDINE-3-ACETICACID; EI-MS
Name: 3-CARBOXYMETHYL-4H-PYRIDO(1,2-A)PYRIMIDIN-4-ONE
Formula: C10H8N2O3
Exact mass: 204.05349
Instrument type: EI-MS
m/z	relative intensity
38	40
39	106
44	25
45	3
50	34
51	187
52	97
53	3
55	218
64	18
65	22
65.5	2
66	12
75	9
76	22
77	3
78	781
79	219
80	16
94	1
104	14
105	156
106	12
130	2
131	250
132	140
133	14
158	1
159	999
160	625
161	62
175	1
186	6
204	34
205	41
