Mass spectrum: 4-(P-TOLYL)PYRIDINE; EI-MS
Formula: C12H11N
Exact mass: 169.08915
Instrument type: EI-MS
m/z	relative intensity
39	45
51	47
63	48
65	4
70	38
83.5	44
89	35
91	13
115	102
139	52
140	39
141	10
154	50
166	54
167	216
168	60
169	999
170	135
