Mass spectrum: HEXADECANOL; EI-MS
Formula: C16H34O
Exact mass: 242.26097
Instrument type: EI-MS
m/z	relative intensity
27	169
29	312
31	260
39	109
41	816
42	209
43	972
44	65
45	11
53	38
54	108
55	999
56	483
57	733
58	39
67	144
68	316
69	725
70	435
71	302
73	15
81	76
82	327
83	764
84	292
85	156
95	17
96	117
97	509
98	189
99	16
110	41
111	250
112	110
125	113
126	61
139	17
140	26
154	19
