Mass spectrum: 2-TRIDECANONE; EI-MS
Formula: C13H26O
Exact mass: 198.19837
Instrument type: EI-MS
m/z	relative intensity
15	15
27	80
29	137
39	56
41	240
42	58
43	780
44	19
53	16
54	15
55	133
56	45
57	138
58	999
59	382
60	13
67	20
68	14
69	33
70	23
71	317
72	18
81	17
82	31
83	22
84	15
85	75
95	19
96	30
97	22
110	13
111	12
127	12
138	23
140	33
183	12
198	31
