Mass spectrum: 5-AMINO-2-(4-CYANOPHENYL)PYRIMIDINE; EI-MS
Formula: C11H8N4
Exact mass: 196.0749
Instrument type: EI-MS
m/z	relative intensity
41	875
42	8
43	12
44	3
47	5
50	8
51	5
61	1
63	5
75	23
76	7
83	2
84.5	27
85	9
88	13
98	2
99	24
101	15
102	64
114	1
118	8
119	9
128	23
129	14
130	17
141	16
168	8
171	1
195	22
196	999
197	127
198	11
