Mass spectrum: 4,8-DIMETHYL-4-NONANOL; EI-MS
Formula: C11H24O
Exact mass: 172.18272
Instrument type: EI-MS
m/z	relative intensity
27	47
29	55
31	13
39	3
41	143
43	243
45	377
55	18
56	66
57	64
58	52
69	64
70	52
71	51
83	78
84	3
85	25
87	999
88	58
97	3
111	172
112	16
129	155
130	1
157	27
