Mass spectrum: LINALYL ACETATE; EI-MS
Name: ACETIC ACID 3,7-DIMETHYL-1,6-OCTADIEN-3-OLESTER
Formula: C12H20O2
Exact mass: 196.14633
Instrument type: EI-MS
m/z	relative intensity
41	117
43	161
55	86
68	171
69	376
80	386
81	132
93	999
95	255
107	69
121	249
124	62
136	32
