Mass spectrum: PERAZIL CHLORCYCLIZINE; EI-MS
Formula: C18H21ClN2
Exact mass: 300.13933
Instrument type: EI-MS
m/z	relative intensity
53	2
54	9
55	23
56	52
57	89
58	149
59	20
60	0
61	2
67	1
68	9
69	2
70	159
71	49
72	389
73	2
74	10
75	7
79	13
80	7
81	20
82	18
83	4
84	0
90	3
91	39
92	13
93	0
97	3
98	23
99	999
100	8
101	13
102	1
161	3
162	1
163	29
164	39
165	309
166	21
167	89
168	23
169	18
170	0
199	1
200	13
201	169
202	4
203	74
204	19
205	11
206	5
228	239
229	234
230	119
231	10
232	33
233	11
234	2
238	1
239	11
240	69
241	219
242	22
243	109
244	69
245	19
246	0
256	29
257	1
258	4
293	0
299	20
300	279
301	69
302	10
303	19
304	3
