Mass spectrum: METHYL CINNAMATE; EI-MS
Name: 3-PHENYL-2-PROPENOIC ACID METHYL ESTER
Formula: C10H10O2
Exact mass: 162.06808
Instrument type: EI-MS
m/z	relative intensity
40	15
41	44
51	78
52	22
53	31
54	13
59	11
63	1
64	36
65	12
74	26
75	3
76	43
77	247
78	30
91	3
102	117
103	488
104	66
105	1
115	11
116	13
117	36
118	1
121	17
131	999
132	104
133	1
134	12
144	21
147	15
160	4
161	281
162	668
163	95
