Mass spectrum: 2-(2,3-DITRIMETHYLSILYLOXYBUTOXY)-N-(2-(DIMETHYLAMINO)ETHYL)-4-QUINOLINECARBOXAMIDE; EI-MS
Formula: C24H41N3O4Si2
Exact mass: 491.26356
Instrument type: EI-MS
m/z	relative intensity
57	2
58	999
59	52
71	92
72	13
73	9
77	4
85	2
97	1
103	1
117	9
143	3
147	5
217	4
259	2
260	1
316	3
329	1
330	2
374	3
476	8
477	3
