Mass spectrum: METHYL 2,6-DIMETHYL-9-(N-METHYLPIPERAZINYLCARBAMOYL)-2,6-NONADIENOATE; EI-MS
Formula: C18H30N2O3
Exact mass: 322.22564
Instrument type: EI-MS
m/z	relative intensity
27	59
28	22
29	64
30	5
39	55
41	134
42	206
43	26
44	191
45	42
53	116
54	5
55	148
56	392
57	281
58	47
59	80
67	80
68	47
69	6
70	999
71	147
72	41
73	3
77	19
79	52
80	58
81	16
82	58
83	244
84	48
85	7
91	5
93	27
95	20
96	4
97	122
98	416
99	508
100	8
101	636
102	36
105	33
107	3
109	52
110	19
111	34
112	3
113	44
114	3
121	25
122	2
125	19
127	211
128	22
135	7
140	20
141	19
142	38
148	2
149	9
152	80
153	19
155	8
156	17
163	19
166	375
167	6
178	22
191	13
207	16
208	3
209	986
210	145
235	67
236	2
255	66
262	41
263	19
266	2
281	14
291	45
320	47
322	13
323	20
368	14
