Mass spectrum: ISOVALERIC ACID METHYL ESTER; EI-MS
Name: 3-METHYL BUTANOIC ACID METHYL ESTER
Formula: C6H12O2
Exact mass: 116.08373
Instrument type: EI-MS
m/z	relative intensity
15	217
27	138
28	37
29	233
31	40
39	115
40	16
41	341
42	110
43	714
44	38
45	25
55	38
56	54
57	277
59	436
60	57
69	54
73	24
74	999
75	34
85	268
86	13
101	96
