Mass spectrum: 2-METHOXY-5-METHYLPYRIMIDINE; EI-MS
Formula: C6H8N2O
Exact mass: 124.06366
Instrument type: EI-MS
m/z	relative intensity
37	20
38	42
39	194
40	10
41	138
42	115
43	73
44	2
45	10
51	24
52	83
53	8
54	106
56	22
58	154
61	1
64	13
65	11
66	72
67	55
68	78
79	13
80	13
81	1
82	67
93	115
94	834
95	37
96	41
123	482
124	999
125	94
