Mass spectrum: DIETHYLENE GLYCOL DIETHYL ETHER; EI-MS
Formula: C8H18O3
Exact mass: 162.12559
Instrument type: EI-MS
m/z	relative intensity
29	67
31	168
41	16
43	9
44	78
45	999
46	25
58	1
59	581
60	25
72	764
73	56
74	27
89	40
90	23
101	2
103	88
116	45
117	14
