Mass spectrum: (4ALPHA)-ACETYL-1(2H)-METHYLENE-3,4,4A,5,6,7,8,(8AALPHA)-OCTAHYDRONAPHTHALENE; EI-MS
Formula: C13H20O
Exact mass: 192.15142
Instrument type: EI-MS
m/z	relative intensity
32	199
39	62
41	166
43	44
53	61
55	99
67	303
69	8
71	141
77	88
79	223
80	6
81	378
84	52
91	156
92	6
93	243
94	57
95	143
97	6
105	119
106	58
107	198
108	7
109	58
119	91
121	80
122	12
134	213
135	53
146	61
147	16
148	119
149	999
150	135
192	240
