Mass spectrum: 2-PHENOXY-4,6-DIPHENYLPYRIMIDINE; EI-MS
Formula: C22H16N2O
Exact mass: 324.12626
Instrument type: EI-MS
m/z	relative intensity
39	73
50	37
51	226
52	3
62	14
63	38
640	16
65	4
66	12
74	25
75	38
76	10
77	760
78	57
79	12
88	2
89	50
90	40
91	12
93	1
101	25
102	79
103	43
104	3
114	16
115	21
116	55
117	1
118	12
127	21
128	32
129	26
130	26
139.5	12
140	17
141	3
144	19
145	12
151	12
152	1
153	15
154	12
162	15
165	4
166	15
169	12
176	12
177	2
178	19
180	60
181	12
189	2
190	24
191	25
192	15
193	3
203	29
204	48
205	16
219	1
220	12
221	32
229	12
239	6
232	25
245	15
247	82
280	1
282	26
295	17
296	19
322	2
323	999
324	520
325	97
