Mass spectrum: 2-(DIETHYLAMONO)ETHANOL; EI-MS
Formula: C6H15NO
Exact mass: 117.11536
Instrument type: EI-MS
m/z	relative intensity
15	29
27	77
28	77
29	99
30	301
31	14
41	19
42	98
43	22
44	59
45	43
56	70
57	16
58	351
59	16
70	18
72	34
86	999
87	59
88	21
102	67
116	31
117	58
