Mass spectrum: 4-CHLOROPHENOL; EI-MS
Formula: C6H5ClO
Exact mass: 128.00289
Instrument type: EI-MS
m/z	relative intensity
46	24
49	15
50	32
51	17
53	32
55	11
61	29
62	37
63	88
64	155
65	302
66	23
73	52
74	23
75	31
89	12
92	23
93	39
99	49
100	85
101	22
102	32
127	12
128	999
129	72
130	336
131	22
