Mass spectrum: METHYL GLYOXYLATE OXIME; EI-MS
Formula: C3H5NO3
Exact mass: 103.02694
Instrument type: EI-MS
m/z	relative intensity
15	753
16	58
27	139
28	148
29	165
30	92
31	112
41	31
42	18
43	97
44	415
45	40
54	61
59	243
71	999
72	301
73	16
103	149
