Mass spectrum: BIS(PENTAFLUOROPHENYL)-TRICHLOROPHOSPHORANE; EI-MS
Formula: C12Cl3F10P
Exact mass: 469.86435
Instrument type: EI-MS
m/z	relative intensity
64	269
69	999
79	93
85	10
93	127
98	92
99	204
105	8
110	392
111	64
117	211
129	28
137	83
145	130
147	64
148	9
149	60
167	46
168	585
198	66
199	60
217	459
233	245
235	7
278	52
298	156
365	359
366	4
367	75
381	46
384	46
400	52
401	75
402	130
403	21
