Mass spectrum: 2-(2'-METHOXYPHENETHYL)CHROMONE; EI-MS
Name: 2-(ORTHO-METHOXYPHENETHYL)-4H-CHROMEN-4-ONE
Formula: C18H16O3
Exact mass: 280.10994
Instrument type: EI-MS
m/z	relative intensity
78	12
81	22
91	295
92	24
93	60
120	10
121	999
122	78
123	10
131	11
147	81
160	53
161	42
173	12
249	14
265	11
279	31
280	708
281	141
282	20
