Mass spectrum: 1-ACETYL-4-(2-PYRIDYL)-2-PYRAZOLINE-3-CARBOXYLIC ACID METHYL ESTER; EI-MS
Formula: C12H13N3O3
Exact mass: 247.09569
Instrument type: EI-MS
m/z	relative intensity
78	126
79	999
80	407
92	3
95	208
117	126
118	96
119	21
127	333
146	74
169	52
172	6
204	81
246	46
247	24
