Mass spectrum: 2-PHENOXYETHANOL; EI-MS
Formula: C8H10O2
Exact mass: 138.06808
Instrument type: EI-MS
m/z	relative intensity
15	7
18	11
19	11
27	37
29	27
31	14
38	14
39	86
40	16
43	15
45	60
50	32
51	107
55	12
63	27
65	104
66	204
77	336
78	40
79	77
91	33
92	11
93	10
94	999
95	176
107	56
117	15
138	149
139	7
