Mass spectrum: 2-PROPYLPYRIDINE; EI-MS
Formula: C8H11N
Exact mass: 121.08915
Instrument type: EI-MS
m/z	relative intensity
27	21
29	18
38	10
39	100
40	10
41	30
51	81
52	69
63	21
64	11
65	100
66	60
77	31
78	90
79	101
92	90
93	999
105	19
106	290
107	33
120	140
121	34
