Mass spectrum: 4-METHYL-4-VINYLBUTYROLACTONE; EI-MS
Formula: C7H10O2
Exact mass: 126.06808
Instrument type: EI-MS
m/z	relative intensity
26	38
27	274
28	361
29	48
39	145
40	21
41	173
42	76
43	524
44	31
53	58
54	44
55	648
56	313
57	19
65	32
66	10
67	324
68	10
69	10
70	10
71	419
72	11
81	35
82	13
83	246
98	229
99	294
100	12
111	999
112	67
113	10
126	111
