Mass spectrum: ALPHA,ALPHA,ALPHA-TRICHLOROTOLUENE; EI-MS
Formula: C7H5Cl3
Exact mass: 193.94568
Instrument type: EI-MS
m/z	relative intensity
89	48
123	31
124	32
125	15
126	11
159	999
160	83
161	663
162	54
163	106
195	4
196	41
197	4
198	12
199	1
200	1
