Mass spectrum: 4-PHENYL-6-HEPTYN-2-ONE; EI-MS
Formula: C13H14O
Exact mass: 186.10447
Instrument type: EI-MS
m/z	relative intensity
43	999
50	12
51	41
52	12
63	20
65	16
67	13
75	10
77	52
78	28
91	34
102	16
103	34
104	27
105	15
115	20
127	30
128	367
129	74
141	11
142	13
143	175
144	48
147	34
186	8
