Mass spectrum: 4-ISOPROPYL-2-CYCLOHEXENONE; EI-MS
Name: CRYPTONE
Formula: C9H14O
Exact mass: 138.10447
Instrument type: EI-MS
m/z	relative intensity
42	330
43	427
51	30
53	58
54	46
55	120
56	27
65	52
66	79
67	245
68	159
69	39
70	25
77	43
79	43
81	208
82	65
83	70
94	30
95	587
96	999
97	167
109	32
110	39
120	35
121	50
123	57
138	236
139	23
