Mass spectrum: 1-METHOXY-2-PROPANOL; EI-MS
Formula: C4H10O2
Exact mass: 90.06808
Instrument type: EI-MS
m/z	relative intensity
15	78
27	49
28	17
29	78
31	124
33	14
39	15
41	29
42	12
43	88
44	22
45	999
46	49
47	319
57	18
59	45
75	44
90	8
