Mass spectrum: 1,3-DIBROMOBENZENE; EI-MS
Formula: C6H4Br2
Exact mass: 233.86798
Instrument type: EI-MS
m/z	relative intensity
49	37
50	271
51	42
73	43
74	160
75	366
76	261
77	72
78	63
79	17
81	18
117	52
118	94
119	48
129	11
131	10
155	476
156	42
157	464
158	31
234	519
235	38
236	999
237	70
238	494
239	33
