Mass spectrum: PENTYL BENZENE; EI-MS
Formula: C11H16
Exact mass: 148.1252
Instrument type: EI-MS
m/z	relative intensity
27	57
29	68
39	73
41	83
43	11
50	15
51	43
52	13
57	25
63	25
65	129
77	54
78	58
79	26
89	21
90	13
91	999
92	665
93	43
103	24
104	18
105	81
106	17
115	15
117	11
119	14
133	15
148	232
149	23
