Mass spectrum: DIISOPROPYLAMINE; EI-MS
Name: BIS(1-METHYLETHYL)AMINE
Formula: C6H15N
Exact mass: 101.12045
Instrument type: EI-MS
m/z	relative intensity
14	15
15	91
18	41
27	91
28	30
30	29
32	33
39	54
41	101
42	121
43	95
44	999
45	26
56	15
58	72
70	19
86	335
87	20
100	11
101	34
102	37
