Mass spectrum: HALFORDININ; EI-MS
Formula: C18H18O6
Exact mass: 330.11034
Instrument type: EI-MS
m/z	relative intensity
69	570
147	90
175	70
176	90
190	630
191	170
219	110
233	330
247	120
262	999
330	230
331	50
