Mass spectrum: CHLOROFORM; EI-MS
Formula: CHCl3
Exact mass: 117.91438
Instrument type: EI-MS
m/z	relative intensity
47	260
48	134
49	90
50	45
82	38
83	999
84	35
85	656
86	11
87	104
117	12
118	20
119	12
120	20
