Mass spectrum: 2-METHYLCYCLOHEXANONE; EI-MS
Formula: C7H12O
Exact mass: 112.08882
Instrument type: EI-MS
m/z	relative intensity
51	28
53	76
54	131
55	681
56	488
57	445
58	129
66	28
67	278
68	999
69	464
70	174
71	235
72	41
79	58
80	27
81	300
82	120
83	154
84	249
85	57
86	34
94	40
95	46
96	230
97	110
98	39
110	37
111	62
112	313
113	41
