Mass spectrum: 1-ETHYL-5,5-DIISOPROPYL-3-METHYL-3,4-DIHYDROFORMAZAN; EI-MS
Formula: C10H24N4
Exact mass: 200.2001
Instrument type: EI-MS
m/z	relative intensity
28	112
29	137
30	64
31	3
39	37
40	14
41	149
42	17
43	261
44	286
55	7
56	11
57	58
58	999
59	87
69	1
70	68
71	12
72	14
73	5
84	34
85	311
86	137
87	1
99	27
100	77
101	162
102	1
115	24
127	137
128	12
142	6
143	473
144	52
