Mass spectrum: DIETHYL FUMARATE; EI-MS
Formula: C8H12O4
Exact mass: 172.07356
Instrument type: EI-MS
m/z	relative intensity
43	145
45	141
53	315
54	554
55	22
71	140
72	22
81	5
82	194
98	27
99	825
100	14
117	43
125	36
126	504
127	999
128	147
129	17
143	95
145	13
173	522
174	33
