Mass spectrum: 1-ACETYL-4-PHENYL-3-(2-PYRIDYL)-2-PYRAZOLINE; EI-MS
Formula: C16H15N3O
Exact mass: 265.12151
Instrument type: EI-MS
m/z	relative intensity
78	517
79	905
89	106
90	9
91	186
95	121
104	86
105	6
117	129
118	112
119	121
127	22
146	198
193	78
194	251
195	22
204	55
222	999
223	455
264	13
265	466
