Mass spectrum: 2,3-DIMETHYL-8-NITROPYRROLO(2,3-F)QUINOLINE; EI-MS
Formula: C13H11N3O2
Exact mass: 241.08513
Instrument type: EI-MS
m/z	relative intensity
41	77
43	124
44	154
45	5
56	92
57	107
69	62
83	3
97	31
167	46
168	69
179	3
180	25
183	30
193	31
194	5
195	330
196	31
211	23
226	2
240	100
241	999
242	77
