Mass spectrum: O-CRESYL ACETATE; EI-MS
Name: 1-ACETOXY-2-METHYLBENZENE
Formula: C9H10O2
Exact mass: 150.06808
Instrument type: EI-MS
m/z	relative intensity
14	14
15	95
18	22
26	12
27	69
28	17
38	20
39	110
41	10
42	21
43	422
50	56
51	118
52	75
53	65
62	13
63	38
64	13
65	31
77	228
78	88
79	137
80	97
89	22
90	108
91	38
107	334
108	999
109	77
150	115
