Mass spectrum: DIPHENYLMETHYL ACETATE; EI-MS
Name: ALPHA-PHENYLBENZYL ACETATE
Formula: C15H14O2
Exact mass: 226.09938
Instrument type: EI-MS
m/z	relative intensity
39	58
41	20
50	11
51	39
52	12
63	33
64	10
65	149
77	30
89	30
90	21
91	999
92	77
108	11
226	20
