Mass spectrum: 4-METHYLENECYCLOHEXYL 4-METHYL-3-PENTENYLKETONE; EI-MS
Formula: C14H22O
Exact mass: 206.16707
Instrument type: EI-MS
m/z	relative intensity
41	208
43	132
44	56
53	49
55	153
65	35
67	83
69	213
77	103
79	156
80	37
81	142
83	261
91	98
92	39
93	133
94	46
95	99
97	48
105	65
107	43
121	275
122	38
136	42
139	999
140	100
145	108
163	105
206	388
207	55
