Mass spectrum: TRIPHENYLETHENE; EI-MS
Formula: C20H16
Exact mass: 256.1252
Instrument type: EI-MS
m/z	relative intensity
50	30
51	72
63	36
64	3
74	16
75	25
76	28
77	5
87	16
88	19
89	19
91	3
100	22
101	43
102	16
103	2
106	16
107	22
112	18
113	8
114	42
115	23
119	22
120	1
125	30
126	99
127	34
128	2
139	22
150	24
151	56
152	9
153	22
163	18
165	236
166	3
176	111
177	89
178	505
179	4
180	51
189	26
200	18
202	0
213	18
215	95
226	62
227	2
228	69
229	35
239	209
240	17
241	239
242	45
250	32
251	2
252	148
253	170
254	106
255	31
256	999
257	213
258	20
