Mass spectrum: METHYL PHENYL KETONE; EI-MS
Formula: C8H8O
Exact mass: 120.05751
Instrument type: EI-MS
m/z	relative intensity
26	11
27	38
29	12
38	3
39	81
42	38
43	270
50	17
51	393
52	37
62	27
63	5
65	30
74	56
75	33
76	5
77	779
78	84
89	12
91	3
105	999
106	78
120	541
121	51
