Mass spectrum: ETHYL CROTONATE; EI-MS
Name: ETHYL TRANS-2-BUTENOATE
Formula: C6H10O2
Exact mass: 114.06808
Instrument type: EI-MS
m/z	relative intensity
15	21
26	21
27	102
29	119
37	12
38	29
39	282
40	16
41	298
42	32
43	18
45	36
55	10
68	68
69	999
70	46
71	18
86	56
87	16
99	296
100	15
114	16
