Mass spectrum: METHYL PHENYLACETATE; EI-MS
Formula: C9H10O2
Exact mass: 150.06808
Instrument type: EI-MS
m/z	relative intensity
15	48
38	13
39	76
41	21
45	16
50	19
51	34
52	10
59	69
62	16
63	49
64	15
65	124
77	11
89	40
90	28
91	999
92	77
105	12
118	12
119	25
150	314
151	31
