Mass spectrum: ISOVALERALDEHYDE ISOBUTYL ISOPENTYL ACETAL; EI-MS
Name: ISOVALERALDEHYDE ISOAMYL ISOBUTYL ACETAL
Formula: C14H30O2
Exact mass: 230.22458
Instrument type: EI-MS
m/z	relative intensity
27	105
28	11
29	213
31	2
39	69
40	12
41	349
42	5
43	656
44	36
45	54
53	1
55	107
56	53
57	879
58	4
69	153
70	28
71	999
72	6
85	26
87	126
103	12
117	9
143	150
144	15
157	197
158	2
173	122
174	12
