Mass spectrum: 2-HEXENAL; EI-MS
Formula: C6H10O
Exact mass: 98.07316
Instrument type: EI-MS
m/z	relative intensity
37	45
38	103
39	709
40	143
41	999
42	591
43	245
44	27
50	59
51	61
53	118
54	97
55	728
56	179
57	338
62	24
63	24
65	25
67	52
68	61
69	572
70	144
79	54
80	78
81	32
83	359
84	22
97	64
98	128
