Mass spectrum: INDOLE-2-CARBOXYLIC ACID METHYL ESTER; EI-MS
Formula: C10H9NO2
Exact mass: 175.06333
Instrument type: EI-MS
m/z	relative intensity
42	23
62	58
63	86
89	18
115	27
116	219
117	31
144	999
145	113
146	31
175	494
176	43
