Mass spectrum: 3,5,5-TRIMETHYLHEXYL ACETATE; EI-MS
Name: ACETIC ACID 3,5,5-TRIMETHYLHEXYL ESTER
Formula: C11H22O2
Exact mass: 186.16198
Instrument type: EI-MS
m/z	relative intensity
29	13
41	41
42	84
43	128
55	171
56	104
57	692
58	28
61	302
69	346
70	999
71	216
72	11
83	121
84	40
87	15
88	16
98	39
102	10
111	345
112	27
116	300
117	20
126	25
129	25
130	28
131	38
