Mass spectrum: 5,5-DICHLORO-3-METHYL-2,4-PENTADIENYL ACETATE; EI-MS
Formula: C8H10Cl2O2
Exact mass: 208.00578
Instrument type: EI-MS
m/z	relative intensity
27	15
28	53
39	32
41	13
43	999
44	25
45	30
50	10
51	30
65	28
73	30
77	150
78	18
79	10
95	22
113	103
114	10
115	32
131	12
148	20
149	8
150	12
173	12
208	10
210	7
