Mass spectrum: ACETALDEHYDE DI-TRANS-2-HEXENYL ACETAL; EI-MS
Formula: C14H26O2
Exact mass: 226.19328
Instrument type: EI-MS
m/z	relative intensity
27	100
29	111
39	111
41	402
42	62
43	106
44	11
45	44
53	49
54	117
55	692
56	94
57	152
58	10
67	106
68	11
69	36
71	20
81	60
82	119
83	999
84	99
85	14
97	15
99	69
100	15
109	11
113	13
126	18
127	74
138	18
139	18
