Mass spectrum: 1,1-CYCLOPENTANEDIACETIC ACID BIS(TRIMETHYLSILYL) ESTER; EI-MS
Name: DI(TRIMETHYLSILYL) 1,1-CYCLOPENTANEDIACETATE
Formula: C15H30O4Si2
Exact mass: 330.16826
Instrument type: EI-MS
m/z	relative intensity
43	94
45	210
67	51
73	999
74	72
75	300
77	180
81	13
95	60
109	433
117	141
147	32
170	103
183	55
198	72
199	21
212	137
315	150
