Mass spectrum: EICOSANOIC ACID BUTYL ESTER; EI-MS
Formula: C24H48O2
Exact mass: 368.36543
Instrument type: EI-MS
m/z	relative intensity
41	11
43	18
55	11
56	999
57	192
58	5
60	115
61	159
69	15
70	10
71	72
73	192
74	15
81	7
82	8
83	34
84	34
85	55
86	6
87	31
88	3
95	9
96	9
97	44
98	39
99	23
101	63
102	7
109	9
110	4
111	32
112	10
113	13
115	28
116	186
117	128
118	6
123	3
125	17
126	4
127	9
129	195
130	18
135	2
139	11
141	6
142	2
143	18
153	6
155	4
157	14
158	7
167	4
171	29
172	8
181	2
185	58
186	7
195	2
199	8
208	1
209	2
213	18
214	3
227	17
228	3
241	14
250	3
255	7
265	2
269	36
270	9
283	10
284	3
292	4
293	8
294	3
295	100
296	21
297	3
311	6
312	113
313	250
314	53
315	5
325	14
326	2
367	2
368	139
369	38
370	5
