Mass spectrum: 2-METHYL-(7,8)-BENZOCHROMONE; EI-MS
Formula: C14H10O2
Exact mass: 210.06808
Instrument type: EI-MS
m/z	relative intensity
39	50
40	50
44	80
62	40
63	80
76	60
88	50
91	40
105	50
113	100
114	430
115	70
142	40
152	40
170	650
171	100
181	60
182	100
210	999
211	160
