Mass spectrum: 2-METHYL-2,4-PENTANEDIOL; EI-MS
Name: 2,4-DIHYDROXY-2-METHYLPENTANE
Formula: C6H14O2
Exact mass: 118.09938
Instrument type: EI-MS
m/z	relative intensity
15	32
27	43
28	17
29	59
31	97
39	45
40	16
41	179
42	142
43	642
44	39
45	171
55	31
56	275
57	132
58	32
59	999
60	48
61	96
67	10
85	91
103	44
