Mass spectrum: ISOBUTYLBENZENE; EI-MS
Formula: C10H14
Exact mass: 134.10955
Instrument type: EI-MS
m/z	relative intensity
27	48
28	15
29	12
39	84
41	92
43	157
50	17
51	48
52	11
56	13
57.5	13
63	30
65	123
77	28
78	24
89	22
91	999
92	525
93	35
103	9
115	23
117	15
119	9
134	220
135	22
