Mass spectrum: N-PHENYLPROPADIENYL-3-PHENOLAMINE; EI-MS
Formula: C15H13NO
Exact mass: 223.09971
Instrument type: EI-MS
m/z	relative intensity
39	20
51	10
65	52
77	17
93	30
102	16
103	20
109	66
115	65
117	17
127	25
130	17
194	13
220	46
221	82
222	999
223	440
224	67
