Mass spectrum: N-BENZYLETHANOLAMINE; EI-MS
Name: 2-BENZYLAMINOETHANOL
Formula: C9H13NO
Exact mass: 151.09971
Instrument type: EI-MS
m/z	relative intensity
27	12
28	38
29	15
30	29
31	29
39	33
41	13
42	11
43	9
50	10
51	25
52	8
56	11
63	21
64	6
65	88
66	5
74	13
77	22
78	8
79	12
89	21
90	12
91	999
92	88
104	9
105	11
106	29
117	6
118	17
120	485
121	46
150	6
151	26
152	11
