Mass spectrum: 2,4-DIMETHYL IMIDAZOLINE; EI-MS
Formula: C5H10N2
Exact mass: 98.0844
Instrument type: EI-MS
m/z	relative intensity
99	80
98	780
97	250
84	140
83	999
82	60
69	700
68	500
56	80
55	880
54	380
53	30
52	60
44	130
43	100
42	760
41	200
40	80
39	80
