Mass spectrum: 2-OCTANONE; EI-MS
Formula: C8H16O
Exact mass: 128.12012
Instrument type: EI-MS
m/z	relative intensity
29	12
41	27
42	10
43	45
44	12
45	13
55	20
57	4
58	999
59	216
60	10
68	2
69	10
70	32
71	177
72	2
85	68
86	33
99	10
113	5
128	125
129	15
