Mass spectrum: 2-METHYL-1-(2-(6-METHYL-3-PYRIDYL)ETHYL)-3-PROPYLINDOLE; EI-MS
Formula: C20H24N2
Exact mass: 292.19395
Instrument type: EI-MS
m/z	relative intensity
57	21
77	12
91	10
105	1
106	13
115	17
128	10
130	3
143	30
144	114
156	65
157	18
158	55
186	999
187	133
263	46
264	87
292	400
