Mass spectrum: METHYL HEXYL KETONE; EI-MS
Name: 2-OCTANONE
Formula: C8H16O
Exact mass: 128.12012
Instrument type: EI-MS
m/z	relative intensity
15	22
27	52
28	26
29	59
39	35
41	108
42	37
43	999
44	47
45	26
55	50
56	18
57	51
58	832
59	154
68	17
69	16
70	27
71	151
72	31
85	70
86	17
95	10
113	27
128	38
129	11
