Mass spectrum: TRICHLOROETHYLENE; EI-MS
Formula: C2HCl3
Exact mass: 129.91438
Instrument type: EI-MS
m/z	relative intensity
24	17
25	88
35	51
36	15
37	18
47	82
48	25
49	29
59	56
60	372
61	29
62	119
65	15
66	15
82	14
83	12
84	11
94	80
95	999
96	75
97	644
98	23
99	102
130	874
131	24
132	837
133	19
134	266
136	30
