Mass spectrum: 2-METHYL-3-(4-T-BUTYLPHENYL)PROPIONALDEHYDE; EI-MS
Name: LILY ALDEHYDE
Formula: C14H20O
Exact mass: 204.15142
Instrument type: EI-MS
m/z	relative intensity
27	42
29	90
39	55
41	168
43	28
51	29
52	10
53	23
55	25
57	142
63	22
64	19
65	50
66	10
77	50
78	26
79	24
89	23
90	11
91	257
92	37
102	13
103	30
104	32
105	90
107	10
115	129
116	45
117	248
118	28
119	162
120	18
127	19
128	46
129	40
130	51
131	300
132	178
133	31
134	11
143	10
145	87
146	19
147	412
148	79
159	13
161	22
187	16
189	999
190	143
204	232
205	31
