Mass spectrum: METHYL 3,4-METHYLENEDIOXYBENZOATE; EI-MS
Name: 3,4-METHYLENEDIOXYBEZOIC ACID METHYL ESTER
Formula: C9H8O4
Exact mass: 180.04226
Instrument type: EI-MS
m/z	relative intensity
39	32
62	53
63	78
65	5
74	58
91	74
119	48
121	17
149	999
150	56
179	77
180	63
181	61
