Mass spectrum: 3-PHENYLTHIOCYCLOHEXANONE; EI-MS
Formula: C12H14OS
Exact mass: 206.07654
Instrument type: EI-MS
m/z	relative intensity
42	815
45	50
51	68
53	39
55	400
65	134
66	96
67	60
68	158
69	999
70	61
77	73
84	42
91	38
96	97
97	774
98	60
109	173
110	460
111	38
135	40
206	770
207	109
208	44
