Mass spectrum: ACETAL; EI-MS
Name: 1,1-DIETHOXYETHANE
Formula: C6H14O2
Exact mass: 118.09938
Instrument type: EI-MS
m/z	relative intensity
15	33
26	13
27	91
28	22
29	120
31	35
43	118
44	48
45	999
46	25
47	171
61	34
72	13
73	616
74	30
75	59
103	183
104	12
