Mass spectrum: 2-METHYL-3-TRIMETHYLSILOXY-2-PENTENE; EI-MS
Formula: C9H20OSi
Exact mass: 172.12834
Instrument type: EI-MS
m/z	relative intensity
42	75
43	55
44	29
45	152
47	53
55	36
57	74
59	51
61	35
67	59
71	39
73	999
74	88
75	801
76	59
77	33
91	24
115	24
129	30
143	69
144	44
157	230
158	34
172	209
173	32
