Mass spectrum: N-(2-AMINOETHYL)PYPERAZINE; EI-MS
Formula: C6H15N3
Exact mass: 129.1266
Instrument type: EI-MS
m/z	relative intensity
30	22
42	19
43	24
44	92
56	269
57	21
58	36
61	10
70	212
71	24
72	13
83	13
84	56
85	16
88	129
97	13
98	10
99	999
101	77
112	62
129	14
130	7
