Mass spectrum: 2-NORMAL-BUTYLTHIO-5-AMINOTHIAZOLO(5,4-D)PYRIMIDINE; EI-MS
Formula: C9H12N4S2
Exact mass: 240.05034
Instrument type: EI-MS
m/z	relative intensity
240	300
207	30
198	120
193	300
184	999
180	90
142	320
125	110
97	250
85	150
83	120
