Mass spectrum: PROPYLENE; EI-MS
Name: PROPENE
Formula: C3H6
Exact mass: 42.04695
Instrument type: EI-MS
m/z	relative intensity
12	11
13	16
14	35
15	50
19	29
19.5	18
20	20
25	26
26	116
27	265
28	22
36	30
37	158
38	213
39	734
40	303
41	999
42	661
43	23
