Mass spectrum: N-ACETYLGLYCYLALANYLALANYLGLYCINE METHYL ESTER; EI-MS
Formula: C13H22N4O6
Exact mass: 330.15393
Instrument type: EI-MS
m/z	relative intensity
15	15
28	20
30	36
31	13
32	18
41	21
42	18
43	45
44	852
45	34
55	12
56	16
57	22
58	10
59	15
60	10
70	15
71	18
72	36
73	43
74	12
84	15
85	20
86	19
87	10
90	41
96	11
98	15
99	31
100	67
101	12
111	18
113	15
115	13
116	18
117	13
127	19
141	18
142	15
143	155
144	282
145	66
169	18
170	12
171	592
172	59
173	12
185	10
187	15
188	16
196	10
213	10
214	999
215	226
216	40
242	55
243	13
256	13
258	31
299	22
312	10
330	61
331	12
