Mass spectrum: PENTYL ACETATE; EI-MS
Formula: C7H14O2
Exact mass: 130.09938
Instrument type: EI-MS
m/z	relative intensity
28	11
29	26
41	60
42	401
43	999
44	26
45	11
55	323
56	22
57	16
58	73
61	475
62	11
68	12
69	112
70	932
71	61
72	11
73	204
85	17
87	22
101	18
112	11
