Mass spectrum: TERT-BUTYLAMINE; EI-MS
Formula: C4H11N
Exact mass: 73.08915
Instrument type: EI-MS
m/z	relative intensity
15	97
26	13
27	50
28	19
29	42
30	107
31	11
39	65
40	19
41	188
42	148
43	40
55	16
56	23
57	65
58	999
59	125
