Mass spectrum: HEXYL BUTYRATE; EI-MS
Formula: C10H20O2
Exact mass: 172.14633
Instrument type: EI-MS
m/z	relative intensity
26	10
27	270
28	66
29	195
31	14
39	126
40	23
41	403
42	257
43	999
44	37
45	16
53	15
54	19
55	229
56	432
57	58
60	75
61	40
69	147
70	18
71	776
72	30
73	35
83	29
84	335
85	43
86	11
88	45
89	542
90	20
99	12
101	23
129	11
