Mass spectrum: ALPHA-BISABOLENE; EI-MS
Formula: C15H24
Exact mass: 204.1878
Instrument type: EI-MS
m/z	relative intensity
27	30
29	58
39	77
41	25
43	90
51	21
53	145
55	13
65	55
67	97
68	30
69	6
77	110
78	30
79	140
80	13
81	97
82	38
91	187
92	12
93	999
94	191
95	140
105	22
106	72
107	187
108	30
109	2
110	23
119	273
120	45
121	19
122	66
123	20
131	15
132	2
133	142
134	38
135	50
136	4
147	107
148	83
149	26
161	13
162	23
175	15
176	15
189	42
