Mass spectrum: DECANE; EI-MS
Formula: C10H22
Exact mass: 142.17215
Instrument type: EI-MS
m/z	relative intensity
27	185
28	25
29	302
39	99
41	435
42	137
43	999
44	26
53	20
54	14
55	131
56	179
57	830
58	40
69	29
70	90
71	326
72	17
84	59
85	224
86	14
98	32
99	42
112	10
113	22
142	53
