Mass spectrum: 1-HEXYLAMINE; EI-MS
Formula: C6H15N
Exact mass: 101.12045
Instrument type: EI-MS
m/z	relative intensity
15	10
18	38
27	50
28	4
29	33
30	999
31	18
39	3
41	45
42	22
43	20
44	4
45	35
55	19
56	17
101	28
