Mass spectrum: 3-(2-AMINOETHYL)INDOLE; EI-MS
Formula: C10H12N2
Exact mass: 160.10005
Instrument type: EI-MS
m/z	relative intensity
39	35
41	22
43	12
50	2
51	46
52	20
55	14
62	1
63	29
64	12
65	20
74	2
75	27
76	31
77	155
78	3
79	12
89	26
90	22
91	1
93	14
102	53
103	129
104	2
115	37
116	14
117	41
128	5
129	39
130	999
131	602
132	6
142	14
143	44
144	113
145	4
155	12
156	11
158	16
160	12
161	16
