Mass spectrum: 2,5-DIMETHYL-2,5-HEXANEDIOL; EI-MS
Formula: C8H18O2
Exact mass: 146.13068
Instrument type: EI-MS
m/z	relative intensity
15	27
27	60
29	78
31	138
39	62
41	123
42	100
43	999
44	28
45	20
53	20
55	285
56	17
57	36
58	64
59	761
60	18
67	18
69	64
70	461
71	54
77	13
95	112
111	19
113	270
114	15
