Mass spectrum: DIPHENAMIDE; EI-MS
Formula: C16H17NO
Exact mass: 239.13101
Instrument type: EI-MS
m/z	relative intensity
44	14
51	17
63	22
72	920
77	11
134	18
139	31
141	1
152	140
153	20
163	24
164	3
165	372
166	145
167	999
168	14
169	10
222	153
223	30
239	35
240	200
241	34
