Mass spectrum: TETRADECYL BROMIDE; EI-MS
Formula: C14H29Br
Exact mass: 276.14526
Instrument type: EI-MS
m/z	relative intensity
40	29
41	755
42	173
43	999
44	39
53	36
54	34
55	50
56	149
57	769
58	34
67	3
68	20
69	262
70	71
71	31
72	17
81	11
82	15
83	10
84	28
85	151
86	10
97	5
98	12
99	27
107	10
109	1
111	12
112	5
113	12
121	1
123	5
125	3
127	9
134	2
135	246
136	20
137	240
138	1
141	5
148	4
149	40
150	1
151	41
152	2
155	2
163	1
164	2
165	4
177	1
179	0
191	1
