Mass spectrum: 5-METHOXY-7-METHYL-3-METHYLENEOCT-1-ENE; EI-MS
Formula: C11H20O
Exact mass: 168.15142
Instrument type: EI-MS
m/z	relative intensity
42	289
43	260
45	516
53	100
55	50
58	38
59	526
65	26
67	58
69	919
70	48
71	144
77	52
79	130
80	28
81	126
82	37
85	37
93	36
101	999
102	67
111	29
112	36
136	27
168	41
