Mass spectrum: 5-(2-(6-METHYL-3-PYRIDYL)ETHYL)-2-PROPYL-1,2,3,4-TETRAHYDRO-GAMMA-CARBOLINE; EI-MS
Formula: C22H27N3
Exact mass: 333.2205
Instrument type: EI-MS
m/z	relative intensity
42	65
77	61
120	263
121	4
128	121
129	85
143	919
144	15
154	66
155	55
156	855
157	14
213	27
225	47
227	135
247	3
262	565
263	290
304	252
305	7
332	548
333	999
