Mass spectrum: N-PIPEROYLDIETHLAMINE; EI-MS
Name: N,N-DIETHYL-5-(3,4-METHYLENEDIOXYPHENYL)-2,4-PENTADIENAMIDE
Formula: C16H19NO3
Exact mass: 273.13649
Instrument type: EI-MS
m/z	relative intensity
115	105
143	37
173	186
174	18
201	999
202	135
273	662
274	77
