Mass spectrum: ETHYL PARA HYDROXY BENZOATE; EI-MS
Formula: C9H10O3
Exact mass: 166.06299
Instrument type: EI-MS
m/z	relative intensity
39	10
63	38
64	23
65	159
66	15
91	19
92	46
93	199
94	24
95	23
119	15
120	21
121	999
122	108
138	288
139	23
151	20
165	14
166	188
167	26
