Mass spectrum: PROPYL BENZOATE; EI-MS
Formula: C10H12O2
Exact mass: 164.08373
Instrument type: EI-MS
m/z	relative intensity
27	110
29	45
39	58
41	73
42	23
43	24
50	82
51	243
52	13
59	14
74	16
75	15
76	27
77	528
78	39
79	27
105	999
106	84
122	239
123	383
124	23
135	12
164	14
