Mass spectrum: TRANS-PARA-MENTHANE(3,3-D2); EI-MS
Name: TRNS-1-METHYL-4-(1-METHYLETHYL)CYCLOHEXANE(3,3-D2)
Formula: C10H20
Exact mass: 140.1565
Instrument type: EI-MS
m/z	relative intensity
41	14
42	19
43	37
44	15
55	166
56	392
57	250
58	36
59	12
68	24
69	55
70	89
71	82
72	16
81	17
82	69
83	152
84	77
85	54
97	189
98	518
99	999
100	95
127	13
142	201
143	24
