Mass spectrum: TRIMELLITIC ACID TRI-2-ETHYLHEXYL ESTER; EI-MS
Name: TRIS(2-ETHYLHEXYL) TRIMELLITATE
Formula: C33H54O6
Exact mass: 546.39204
Instrument type: EI-MS
m/z	relative intensity
57	30
70	51
71	56
83	32
84	20
112	132
113	145
114	12
193	124
194	27
211	92
212	10
305	999
306	208
307	32
323	312
324	59
417	26
418	10
435	203
436	55
437	10
546	12
547	3
