Mass spectrum: HEPTANE; EI-MS
Formula: C7H16
Exact mass: 100.1252
Instrument type: EI-MS
m/z	relative intensity
26	11
27	193
28	40
29	306
39	114
40	21
41	428
42	222
43	999
44	31
53	15
55	96
56	296
57	489
58	25
70	220
71	525
72	30
85	25
100	245
101	21
