Mass spectrum: ISOBISABOLENE; EI-MS
Name: 6-METHYL-2-(4-METHYLENECYCLOHEXYL)-1,5-HEPTADIENE
Formula: C15H24
Exact mass: 204.1878
Instrument type: EI-MS
m/z	relative intensity
41	589
43	38
53	64
55	98
67	214
68	45
69	999
70	59
77	61
79	148
80	39
81	103
82	57
91	92
92	48
93	257
94	79
95	64
105	60
107	75
108	31
109	266
119	44
120	37
121	38
133	42
134	33
135	50
161	197
204	123
