Mass spectrum: 4',7-DIMETHOXYFLAVONOL; EI-MS
Name: 3-HYDROXY-7-METHOXY-2-(4-METHOXYPHENYL)-4H-CHROMEN-4-ONE
Formula: C17H14O5
Exact mass: 298.08412
Instrument type: EI-MS
m/z	relative intensity
28	42
63	60
77	56
92	4
135	162
149	59
227	26
255	12
268	30
269	28
283	190
297	11
298	999
299	181
