Mass spectrum: 6-METHYL-3-PHENYL-4H-PYRIDO(1,2-A)PYRIMIDIN-4-ONE; EI-MS
Formula: C15H12N2O
Exact mass: 236.09496
Instrument type: EI-MS
m/z	relative intensity
39	250
41	65
50	50
51	8
52	50
62	40
63	155
64	8
65	500
66	95
74	30
75	4
76	75
77	55
89	160
90	11
91	55
92	475
93	60
102	8
103	50
116	40
119	40
149	2
180	45
181	60
192	30
193	6
205	95
206	110
207	525
208	999
209	140
235	15
236	575
237	9
238	5
