Mass spectrum: METHYL 4-METHOXYBENZOATE; EI-MS
Name: METHYL ANISATE
Formula: C9H10O3
Exact mass: 166.06299
Instrument type: EI-MS
m/z	relative intensity
15	22
29	22
38	23
39	13
50	29
51	20
53	11
62	16
63	82
64	85
65	11
74	16
75	15
76	24
77	166
78	13
79	11
92	149
107	80
123	12
135	999
136	103
165	13
166	393
167	36
