Mass spectrum: BIS(TERT-BUTYLDIMETHYLSILYL)AMINE; EI-MS
Formula: C12H31NSi2
Exact mass: 245.1995
Instrument type: EI-MS
m/z	relative intensity
41	35
45	21
57	37
59	34
66	24
73	151
74	75
75	11
99	27
100	43
102	12
113	12
116	73
117	14
130	181
131	29
132	72
133	12
146	999
147	167
148	77
188	939
189	187
190	74
230	45
231	11
245	7
