Mass spectrum: 4-METHYLQUINOLINE; EI-MS
Name: LEPIDINE
Formula: C10H9N
Exact mass: 143.0735
Instrument type: EI-MS
m/z	relative intensity
37	97
38	208
39	498
40	76
41	43
42	11
43	18
49	59
50	332
51	376
52	126
53	30
55	13
56	18
57	130
58	139
59	17
60	15
61	80
62	186
63	284
64	105
65	105
66	17
70	38
71	68
72	16
73	38
74	118
75	126
76	102
77	140
78	38
85	17
86	38
87	61
88	64
89	211
90	75
91	20
98	11
99	11
100	16
101	59
102	34
103	24
104	77
113	40
114	85
115	493
116	182
117	98
128	42
140	30
141	61
142	381
143	999
144	147
145	11
