Mass spectrum: OCTYL PHENYLACETATE; EI-MS
Formula: C16H24O2
Exact mass: 248.17763
Instrument type: EI-MS
m/z	relative intensity
27	97
29	172
39	96
41	374
42	99
43	601
51	22
53	16
54	10
55	162
56	72
57	627
58	22
63	26
64	11
65	155
67	10
68	13
69	79
70	48
71	409
72	17
77	10
83	33
84	29
89	33
90	33
91	999
92	228
93	13
112	39
118	10
119	23
136	354
137	168
138	12
157	139
158	12
