Mass spectrum: NERAL DIMETHYL ACETAL; EI-MS
Name: CIS-3,7-DIMETHYL-2,6-OCTADIENAL DIMETHYL ACETAL
Formula: C12H22O2
Exact mass: 198.16198
Instrument type: EI-MS
m/z	relative intensity
15	74
27	195
29	207
30	14
31	206
38	12
39	319
40	32
41	999
42	42
43	122
45	263
47	17
50	15
51	56
52	28
53	225
54	39
55	200
56	16
57	14
58	18
59	44
63	15
65	57
66	22
67	160
68	37
69	756
70	34
71	52
73	463
74	19
75	148
77	112
78	25
79	121
80	37
81	67
82	36
83	283
84	30
85	46
86	292
87	34
91	210
92	35
93	148
94	29
95	50
97	28
98	244
99	35
103	12
105	54
106	15
107	57
108	30
109	61
110	38
111	36
115	52
117	16
119	189
120	17
121	49
122	13
123	820
124	58
125	11
128	23
129	21
134	48
135	40
136	14
137	14
141	37
151	82
166	76
167	14
