Mass spectrum: CHLOROBIS(TRIMETHYLSILYL)METHANE; EI-MS
Formula: C7H19ClSi2
Exact mass: 194.07138
Instrument type: EI-MS
m/z	relative intensity
43	62
44	20
45	80
55	12
58	21
59	217
60	15
65	18
71	15
72	16
73	999
74	85
75	37
85	394
86	77
87	27
93	46
95	16
106	50
108	18
129	12
151	12
179	71
180	12
181	29
194	15
