Mass spectrum: 3-ISOBUTYL-2,5-PIPERAZINEDIONE; EI-MS
Name: CYCLOGLYCYLLEUCINE
Formula: C8H14N2O2
Exact mass: 170.10553
Instrument type: EI-MS
m/z	relative intensity
30	324
41	16
42	15
43	7
44	38
55	25
56	132
57	5
61	16
70	35
84	188
85	12
86	39
98	19
99	123
100	1
113	56
114	999
115	55
127	10
128	15
143	16
170	5
