Mass spectrum: 2-AMINO-3-METHYL-9H-PYRIDO(2,3-B)INDOLE; EI-MS
Formula: C12H11N3
Exact mass: 197.0953
Instrument type: EI-MS
m/z	relative intensity
26	16
27	54
28	272
29	20
30	14
32	28
37	16
38	37
39	101
40	22
41	31
42	48
43	102
44	11
50	63
51	96
52	74
53	36
54	29
55	12
57	12
58	14
61	17
62	45
63	90
64	39
65	33
66	19
68	12
70	16
71	34
72	20
73	11
74	45
75	80
76	71
77	80
78	17
84	53
85	82
86	23
87	33
88	36
89	53
90	36
91	20
97	31
98	96
99	105
100	28
101	46
102	42
103	19
104	11
113	29
114	48
115	97
116	50
117	29
118	14
125	25
126	48
127	76
128	71
129	28
130	12
139	17
140	74
141	36
142	50
143	28
144	11
145	68
146	11
151	17
152	76
153	40
154	48
155	34
156	16
167	25
168	70
169	158
170	40
178	16
179	158
180	88
181	36
194	34
195	71
196	674
197	999
198	147
199	14
