Mass spectrum: PROPYL CHLORIDE; EI-MS
Name: 1-CHLOROPROPANE
Formula: C3H7Cl
Exact mass: 78.02363
Instrument type: EI-MS
m/z	relative intensity
15	22
26	45
27	331
28	131
29	398
37	27
38	37
39	124
40	32
41	242
42	999
43	149
49	38
51	13
63	39
65	13
78	20
80	7
