Mass spectrum: TRIETHANOLAMINE; EI-MS
Formula: C6H15NO3
Exact mass: 149.10519
Instrument type: EI-MS
m/z	relative intensity
15	14
18	7
19	9
26	3
27	32
28	42
29	32
30	84
31	51
41	17
42	80
43	43
44	60
45	126
46	3
54	6
55	3
56	225
57	14
58	17
70	15
71	2
72	12
73	4
74	329
75	15
86	11
87	4
88	24
89	2
100	12
101	1
102	4
103	1
104	14
105	3
106	6
116	3
118	999
119	61
120	6
130	4
132	3
148	5
149	20
150	23
