Mass spectrum: TOLUENE; EI-MS
Formula: C7H8
Exact mass: 92.0626
Instrument type: EI-MS
m/z	relative intensity
45	89
46	92
49	12
50	116
51	228
52	61
53	36
61	50
62	102
63	269
64	61
65	495
66	53
75	11
77	20
89	38
90	23
91	999
92	715
93	54
