Mass spectrum: METHYL 4-METHYLENECYCLOHEXYL KETONE; EI-MS
Name: 1-ACETYL-4-METHYLENECYCLOHEXANE
Formula: C9H14O
Exact mass: 138.10447
Instrument type: EI-MS
m/z	relative intensity
41	173
43	569
53	96
55	152
67	214
68	245
71	999
72	49
77	55
79	131
80	77
93	68
94	97
95	426
96	38
123	152
138	386
139	41
