Mass spectrum: 2-AMINO-3-INDOLYLPROPIONIC ACID METHYL ESTER; EI-MS
Formula: C12H14N2O2
Exact mass: 218.10553
Instrument type: EI-MS
m/z	relative intensity
102	32
103	61
130	999
131	9
132	26
159	46
218	42
