Mass spectrum: METHALLYL BUTYRATE; EI-MS
Name: 2-METHYLALLYL BUTYRATE
Formula: C8H14O2
Exact mass: 142.09938
Instrument type: EI-MS
m/z	relative intensity
15	15
26	18
27	269
28	39
29	162
38	15
39	258
40	34
41	198
42	69
43	930
44	31
45	15
53	50
54	78
55	261
56	23
57	32
69	11
71	999
72	152
89	21
