Mass spectrum: PROPIONITRILE; EI-MS
Formula: C3H5N
Exact mass: 55.0422
Instrument type: EI-MS
m/z	relative intensity
14	14
15	74
25	29
26	217
27	190
28	999
29	29
37	17
38	29
39	27
40	52
50	19
51	121
52	151
53	98
54	868
55	190
