Mass spectrum: (2R*,3R*)-2-METHYL-3-((1R*)-1-METHYL-2-BUTENYL)CYCLOPENTANONE; EI-MS
Formula: C11H18O
Exact mass: 166.13577
Instrument type: EI-MS
m/z	relative intensity
41	42
43	18
51	12
53	6
54	17
55	277
56	18
65	1
67	78
68	64
69	999
70	12
77	18
79	23
81	43
82	2
83	43
91	12
93	12
95	6
96	38
97	450
98	91
108	3
109	34
110	33
111	12
123	2
124	74
137	21
166	59
167	10
