Mass spectrum: ALPHA-METHYLSTYRENE; EI-MS
Formula: C9H10
Exact mass: 118.07825
Instrument type: EI-MS
m/z	relative intensity
77	60
78	167
79	11
91	81
92	10
102	14
103	285
104	25
115	75
116	27
117	548
118	999
119	94
