Mass spectrum: 1-METHOXY-2-METHYLBENZENE; EI-MS
Name: ORTHO-METHYLANISOLE
Formula: C8H10O
Exact mass: 122.07316
Instrument type: EI-MS
m/z	relative intensity
15	19
26	10
27	53
28	23
38	24
39	118
40	11
41	17
50	54
51	115
52	65
53	52
61	11
62	23
63	58
64	18
65	87
74	11
75	12
77	311
78	90
79	176
80	14
89	45
90	73
91	320
92	91
93	19
107	487
108	39
121	158
122	999
123	87
