Mass spectrum: ETHYL 4-AMINOBENZOATE; EI-MS
Formula: C9H11NO2
Exact mass: 165.07898
Instrument type: EI-MS
m/z	relative intensity
26	13
27	48
29	44
39	6
40	12
41	19
44	17
52	2
63	28
64	30
65	228
66	4
91	37
92	242
93	59
108	2
119	11
120	999
121	115
137	16
138	12
150	13
164	12
165	47
166	48
