Mass spectrum: 2-METHYLHEPTANE-2-THIOL; EI-MS
Formula: C8H18S
Exact mass: 146.11292
Instrument type: EI-MS
m/z	relative intensity
15	11
27	76
28	10
29	141
39	112
40	14
41	351
42	15
43	67
45	13
47	25
53	22
55	149
56	108
57	999
58	46
59	48
69	15
71	10
74	40
75	401
76	16
77	16
88	30
89	78
97	34
113	107
146	25
