Mass spectrum: DIETHYL BUTYLMALONATE; EI-MS
Formula: C11H20O4
Exact mass: 216.13616
Instrument type: EI-MS
m/z	relative intensity
97	190
101	240
114	150
115	200
124	50
127	50
131	50
132	150
133	280
134	50
142	50
143	70
159	50
160	999
161	80
170	50
171	290
173	70
216	50
