Mass spectrum: (1R)-1,7,7-TRIMETHYLBICYCLO(2.2.1)HEPTAN-2-ONE; EI-MS
Name: (+)CAMPHOR
Formula: C10H16O
Exact mass: 152.12012
Instrument type: EI-MS
m/z	relative intensity
51	30
52	14
53	79
54	19
55	272
56	18
57	12
65	29
66	12
67	198
68	152
69	383
70	25
77	43
79	50
80	154
81	721
82	126
83	296
84	23
91	35
93	116
94	16
95	999
96	96
97	57
107	11
108	470
109	263
110	165
111	17
123	10
124	10
137	43
152	354
153	40
