Mass spectrum: PROPYL SALICYLATE; EI-MS
Formula: C10H12O3
Exact mass: 180.07864
Instrument type: EI-MS
m/z	relative intensity
27	93
29	19
38	21
39	152
41	74
42	10
43	61
53	29
62	12
63	45
64	65
65	154
66	12
81	11
92	270
93	69
120	999
121	262
122	20
138	148
180	191
181	19
