Mass spectrum: MALONONITRILE; EI-MS
Formula: C3H2N2
Exact mass: 66.0218
Instrument type: EI-MS
m/z	relative intensity
26	33
28	114
38	258
39	221
40	48
64	52
65	84
66	999
67	42
