Mass spectrum: OCTANE; EI-MS
Formula: C8H18
Exact mass: 114.14085
Instrument type: EI-MS
m/z	relative intensity
26	12
27	229
29	336
32	14
39	142
40	16
41	416
42	162
43	999
44	30
53	22
55	115
56	196
57	370
58	19
70	141
71	227
72	14
84	60
85	330
86	18
114	52
