Mass spectrum: PLATINUM DIACETYLACETONATE; EI-MS
Formula: C10H14O4Pt
Exact mass: 393.05398
Instrument type: EI-MS
m/z	relative intensity
15	30
18	13
26	20
27	8
28	185
29	35
31	20
37	0
38	17
39	60
40	8
41	1
42	60
43	999
44	40
45	0
50	3
53	20
55	35
56	0
57	3
58	40
69	15
71	0
72	20
85	300
86	10
100	20
101	30
196	3
197	3
208	1
209	20
210	3
220	10
221	0
222	40
223	30
224	10
225	1
233	10
234	13
235	20
236	0
237	23
238	10
239	8
247	0
248	3
249	10
250	20
251	0
252	10
261	3
262	3
263	0
264	20
265	20
266	13
267	1
277	3
278	3
279	13
280	2
281	17
282	5
291	5
292	2
293	21
294	20
295	13
296	1
307	5
308	10
309	10
310	0
321	10
322	13
323	10
334	0
335	3
336	3
349	10
350	0
351	10
392	80
393	90
394	1
395	5
396	13
