Mass spectrum: N-METHYLDIPHENYLAMINE; EI-MS
Formula: C13H13N
Exact mass: 183.1048
Instrument type: EI-MS
m/z	relative intensity
15	29
26	16
27	52
28	25
29	33
30	11
31	148
39	54
43	14
45	62
46	28
50	31
51	142
52	20
63	32
64	19
65	34
74	11
75	12
76	18
77	298
78	42
79	17
84	31
89	14
90	19
91	65
104	140
105	21
106	16
115	37
116	10
128	14
139	26
140	25
141	27
142	40
152	19
153	17
154	22
166	55
167	236
168	88
169	32
180	44
181	42
182	542
183	999
184	142
185	10
