Mass spectrum: 1-(1-PHENYLCYCLOHEXYL)-PIPERIDINE; EI-MS
Formula: C17H25N
Exact mass: 243.1987
Instrument type: EI-MS
m/z	relative intensity
25	21
26	91
27	210
28	47
29	117
30	69
31	19
32	2
33	1
36	12
37	17
38	3
39	158
40	37
41	239
42	14
43	60
44	52
45	15
49	2
50	60
51	124
52	59
53	7
54	63
55	191
56	136
57	7
58	22
61	10
62	29
63	7
64	37
65	109
66	34
67	10
68	42
69	63
70	34
71	2
72	40
73	2
74	24
75	3
76	49
77	191
78	100
79	10
80	60
81	110
82	60
83	8
84	470
85	82
86	44
87	2
88	12
89	51
90	22
91	66
97	10
98	21
99	10
100	2
101	17
102	68
103	110
104	20
105	49
106	19
107	14
108	1
109	2
110	19
111	12
112	0
113	19
114	12
115	309
116	7
117	270
118	54
119	21
120	2
121	12
122	11
123	2
124	0
125	10
126	14
127	64
128	2
129	294
130	242
131	60
132	2
133	10
135	3
141	40
142	3
143	147
144	48
145	20
146	1
147	4
150	13
151	14
152	3
153	24
154	31
155	21
156	0
157	34
158	212
159	65
160	5
161	12
162	9
163	2
164	1
165	10
166	160
167	29
168	1
169	11
170	19
171	22
172	0
173	15
174	19
175	2
176	0
177	2
178	6
179	5
180	0
181	12
182	1
183	2
184	2
185	12
186	215
187	50
188	0
189	4
197	10
198	20
199	2
200	999
201	169
202	20
203	0
204	5
205	2
214	30
215	1
216	4
217	10
218	80
219	1
241	11
242	368
243	315
244	1
245	15
246	4
92	80
93	2
94	14
95	12
96	14
136	0
137	4
138	2
139	14
140	2
