Mass spectrum: 1,4-BIS(MERCAPTOMETHYL)BENZENE; EI-MS
Formula: C8H10S2
Exact mass: 170.02239
Instrument type: EI-MS
m/z	relative intensity
28	595
32	154
34	25
40	3
43	35
44	17
45	154
47	2
77	54
78	85
79	17
89	2
91	238
92	27
93	47
102	2
103	117
104	574
105	62
123	4
135	67
136	33
137	999
138	10
139	61
170	368
171	47
172	46
