Mass spectrum: BENZO(C)NAPHTHO(2,3-H)BICYCLO(4.4.1)UNDECA-3,8-DIEN-11-ONE ETHYLENE ACETAL; EI-MS
Formula: C25H24O2
Exact mass: 356.17763
Instrument type: EI-MS
m/z	relative intensity
43	348
56	85
58	91
73	110
91	112
105	104
115	286
116	120
117	217
127	89
128	207
129	204
139	88
141	181
142	99
152	208
153	262
154	322
155	314
156	122
157	441
165	482
166	176
167	275
168	112
170	94
178	338
179	336
180	133
188	95
189	85
191	68
195	52
201	103
202	578
203	83
208	284
209	129
228	44
237	54
239	62
250	44
251	913
252	242
253	64
254	59
255	90
265	66
270	80
279	91
294	304
295	116
312	486
313	135
356	999
357	291
