Mass spectrum: N-TERT-BUTOXYCARBONYL-2-(1,4-DIHYDROXYBUTYL)PYRROLIDINE; EI-MS
Formula: C13H25NO4
Exact mass: 259.17836
Instrument type: EI-MS
m/z	relative intensity
42	11
56	114
57	69
69	3
70	276
71	15
83	12
97	2
98	10
100	10
111	10
113	14
114	999
115	94
116	17
117	1
121	273
123	27
124	10
139	2
140	11
141	14
142	49
144	3
160	45
169	18
170	407
171	35
172	46
173	25
184	10
185	3
197	17
204	69
205	10
241	2
259	59
260	10
