Mass spectrum: BENZOIC ACID; EI-MS
Formula: C7H6O2
Exact mass: 122.03678
Instrument type: EI-MS
m/z	relative intensity
50	200
51	330
52	60
76	90
77	720
78	80
105	999
106	90
121	120
122	850
123	130
