Mass spectrum: BIS(TRIMETHYLSILYL)AMINE; EI-MS
Formula: C6H19NSi2
Exact mass: 161.1056
Instrument type: EI-MS
m/z	relative intensity
45	14
51	14
59	17
66	52
73	48
74	30
75	34
86	10
100	37
113	13
116	13
130	221
131	35
132	22
146	999
147	176
148	87
149	11
161	30
