Mass spectrum: 2-METHYL IMIDAZOLINE; EI-MS
Formula: C4H8N2
Exact mass: 84.06875
Instrument type: EI-MS
m/z	relative intensity
85	40
84	360
83	170
73	50
55	999
54	330
43	250
42	400
41	110
