Mass spectrum: META CHLOROTOLUENE; EI-MS
Formula: C7H7Cl
Exact mass: 126.02363
Instrument type: EI-MS
m/z	relative intensity
38	15
39	78
41	11
43	12
45	21
50	34
51	34
61	15
62	34
63	94
64	14
65	117
73	15
75	16
89	110
90	20
91	999
92	70
99	19
101	6
125	105
126	390
127	61
128	126
129	7
