Mass spectrum: METHACRYLIC ACID TERT-BUTYL ESTER; EI-MS
Name: TERT-BUTYL METHACRYLATE
Formula: C8H14O2
Exact mass: 142.09938
Instrument type: EI-MS
m/z	relative intensity
15	17
27	38
28	28
29	171
31	15
38	11
39	128
40	29
41	598
42	25
43	38
55	34
56	284
57	999
58	44
59	30
69	625
70	28
86	14
87	197
88	9
91	54
105	9
106	25
124	15
127	18
