Mass spectrum: 2-PROPIONYLFURAN; EI-MS
Name: 1-(2-FURANYL)-1-PROPANONE
Formula: C7H8O2
Exact mass: 124.05243
Instrument type: EI-MS
m/z	relative intensity
27	17
28	10
29	129
39	160
40	12
51	11
53	15
55	15
57	26
67	47
68	30
95	999
96	112
97	10
124	413
125	27
