Mass spectrum: DIETHYLAMINE; EI-MS
Formula: C4H11N
Exact mass: 73.08915
Instrument type: EI-MS
m/z	relative intensity
15	55
26	26
27	150
28	166
29	149
30	825
31	11
40	15
41	34
42	97
43	28
44	287
56	35
57	14
58	999
59	35
72	167
73	288
74	15
