Mass spectrum: 1-PENTADECANOL; EI-MS
Formula: C15H32O
Exact mass: 228.24532
Instrument type: EI-MS
m/z	relative intensity
40	31
41	928
42	241
43	999
44	56
45	22
53	37
54	8
55	784
56	453
57	579
58	3
66	10
67	100
68	214
69	50
70	322
71	176
72	10
73	1
81	41
82	186
83	419
84	18
85	79
86	6
95	15
96	6
97	254
98	82
99	13
110	2
111	105
112	44
113	6
124	1
125	37
126	20
138	4
139	1
140	10
153	4
154	7
167	0
168	2
181	1
182	8
210	2
