Mass spectrum: 3-PENTANOL; EI-MS
Formula: C5H12O
Exact mass: 88.08882
Instrument type: EI-MS
m/z	relative intensity
26	12
27	92
28	29
29	121
31	459
39	50
41	352
42	36
43	67
45	29
55	32
57	77
58	64
59	999
60	45
71	13
