Mass spectrum: HIPPURIC ACID; EI-MS
Formula: C9H9NO3
Exact mass: 179.05824
Instrument type: EI-MS
m/z	relative intensity
30	27
39	37
45	16
50	126
52	33
56	19
74	36
75	3
76	53
77	764
78	68
105	999
106	79
134	150
135	287
136	3
161	12
179	20
