Mass spectrum: 1-BENZYL-3,4,5-TRIMETHYLPYRAZOLE; EI-MS
Formula: C13H16N2
Exact mass: 200.13135
Instrument type: EI-MS
m/z	relative intensity
26	18
27	92
28	76
29	2
38	16
39	185
40	42
41	11
42	119
43	14
50	28
51	9
52	36
53	54
54	24
55	3
56	20
62	12
63	61
64	2
65	298
66	44
67	22
68	3
69	16
76	12
77	66
78	2
79	25
80	16
81	13
82	2
89	66
90	34
91	999
92	11
93	14
95	100
96	16
103	2
104	41
108	15
109	417
110	4
115	27
116	18
117	20
118	1
122	11
123	215
124	19
128	1
130	24
142	12
143	20
144	5
145	14
156	11
157	11
158	3
168	10
169	10
170	14
171	12
172	20
183	14
184	23
185	64
186	222
187	27
198	16
199	58
200	536
201	81
202	6
