Mass spectrum: 2-METHYLTHIOCHROMONE; EI-MS
Formula: C10H8OS
Exact mass: 176.02959
Instrument type: EI-MS
m/z	relative intensity
40	30
41	10
44	10
45	90
46	10
47	15
50	75
51	60
52	10
53	15
57	15
58	60
59	20
60	10
61	25
62	50
63	105
64	30
65	25
66	15
67	70
68	10
69	265
70	15
71	50
72	30
73	45
74	105
75	30
76	50
77	45
78	10
81	30
82	75
83	10
84	15
85	25
86	20
87	10
88	10
89	30
90	10
91	10
92	30
93	25
94	10
95	10
101	10
102	20
103	30
104	15
105	10
106	10
107	20
108	225
109	30
110	25
115	60
116	10
121	25
122	10
135	10
136	330
137	45
138	20
145	10
146	20
147	520
148	525
149	75
150	30
175	10
176	999
177	140
178	65
179	10
