Mass spectrum: PARA-HYDROXYBENZYL ALCOHOL; EI-MS
Name: PARA-HYDROXYMETHYLPHENOL
Formula: C7H8O2
Exact mass: 124.05243
Instrument type: EI-MS
m/z	relative intensity
26	48
27	182
29	130
31	86
38	144
39	571
41	251
44	44
50	204
51	395
52	207
53	154
55	118
62	41
63	155
64	23
65	295
66	136
67	166
74	15
77	938
78	525
79	160
93	48
94	30
95	940
96	55
105	203
106	411
107	531
121	74
123	625
124	999
125	69
