Mass spectrum: 5-NONANONE; EI-MS
Name: DIBUTYL KETONE
Formula: C9H18O
Exact mass: 142.13577
Instrument type: EI-MS
m/z	relative intensity
38	7
39	159
40	27
41	535
42	201
43	999
44	36
50	3
51	8
52	4
53	23
54	15
55	135
56	232
57	921
58	41
67	6
68	3
69	32
70	97
71	254
72	14
83	7
84	55
85	160
86	32
98	27
99	36
100	2
113	18
114	1
142	28
143	3
