Mass spectrum: 2-FURYL PENTYL KETONE; EI-MS
Formula: C10H14O2
Exact mass: 166.09938
Instrument type: EI-MS
m/z	relative intensity
27	139
29	95
37	11
38	37
39	299
41	108
42	25
43	66
51	17
53	45
54	20
55	64
67	26
68	35
81	33
95	706
96	33
97	10
110	999
111	63
123	99
