Mass spectrum: METHYL VALERATE; EI-MS
Formula: C6H12O2
Exact mass: 116.08373
Instrument type: EI-MS
m/z	relative intensity
15	205
26	41
27	286
28	13
29	381
31	47
38	14
39	15
40	19
41	351
42	71
43	38
44	30
45	25
50	10
51	1
53	20
55	106
56	49
57	37
58	16
59	169
73	17
74	999
75	37
85	337
86	19
87	29
88	29
101	21
116	15
