Mass spectrum: ISOBUTYL TIGLATE; EI-MS
Name: ISOBUTYL 2-METHYL-2-BUTENOATE
Formula: C9H16O2
Exact mass: 156.11503
Instrument type: EI-MS
m/z	relative intensity
26	12
27	213
29	287
39	191
41	201
42	14
43	50
45	12
51	18
52	12
53	89
54	60
55	668
56	279
57	114
73	14
82	23
83	999
84	57
85	23
100	49
101	541
102	24
