Mass spectrum: 3,4-BENZO-2-OXABICYCLO(4.1.0)HEPT-3-EN-5-ONE; EI-MS
Formula: C10H8O2
Exact mass: 160.05243
Instrument type: EI-MS
m/z	relative intensity
39	30
40	290
41	70
42	1
50	190
51	130
52	40
53	0
55	120
60	70
61	30
62	0
63	120
64	110
65	70
66	1
73	20
74	70
75	80
76	6
77	200
78	90
79	20
92	0
102	30
103	190
104	430
105	1
119	30
120	90
121	70
131	7
132	200
133	40
134	30
159	0
160	999
161	150
