Mass spectrum: TERT-BUTYL ALCOHOL; EI-MS
Name: 2-METHYL-2-PROPANOL
Formula: C4H10O
Exact mass: 74.07316
Instrument type: EI-MS
m/z	relative intensity
15	30
27	38
28	12
29	56
31	177
39	52
41	141
42	27
43	113
44	13
55	16
56	14
57	85
59	999
60	38
