Mass spectrum: HEXANOIC ACID; EI-MS
Formula: C6H12O2
Exact mass: 116.08373
Instrument type: EI-MS
m/z	relative intensity
15	13
18	18
26	18
27	202
28	27
29	129
31	20
39	102
40	18
41	267
42	87
43	141
45	122
53	15
55	89
56	74
57	77
59	18
60	999
61	75
69	26
70	28
73	434
74	52
87	94
