Mass spectrum: 1,6-DIISOPROPYLNAPHTHALENE; EI-MS
Formula: C16H20
Exact mass: 212.1565
Instrument type: EI-MS
m/z	relative intensity
41	35
54	38
76	63
77	66
82	35
83	59
89	49
90	4
91	98
127	42
128	63
129	6
141	133
152	88
153	140
154	6
155	482
156	70
165	91
166	4
167	56
169	126
181	35
197	999
198	186
212	577
213	109
