Mass spectrum: 2-PROPANOL; EI-MS
Name: ISO-PROPYL ALCOHOL
Formula: C3H8O
Exact mass: 60.05751
Instrument type: EI-MS
m/z	relative intensity
14	16
15	57
19	75
26	2
27	127
28	37
29	79
31	6
37	10
38	16
39	53
41	7
42	20
43	109
44	42
45	999
46	23
59	37
60	7
