Mass spectrum: O-ETHYLPHENOL; EI-MS
Formula: C8H10O
Exact mass: 122.07316
Instrument type: EI-MS
m/z	relative intensity
15	13
27	46
29	13
38	16
39	116
40	14
41	16
50	30
51	86
52	34
53	42
55	14
60	11
62	15
63	36
64	12
65	41
66	13
75	12
77	255
78	52
79	119
91	58
93	11
94	18
103	38
104	12
105	11
107	999
108	63
121	26
122	418
123	31
