Mass spectrum: PHENETHYL ACETATE; EI-MS
Formula: C10H12O2
Exact mass: 164.08373
Instrument type: EI-MS
m/z	relative intensity
15	37
27	19
28	29
39	47
41	12
43	711
44	17
50	17
51	51
52	14
63	23
65	66
73	11
77	50
78	44
79	20
89	12
91	170
92	34
103	46
104	999
105	119
