Mass spectrum: 6-METHYLINDOLE; EI-MS
Formula: C9H9N
Exact mass: 131.0735
Instrument type: EI-MS
m/z	relative intensity
27	14
28	10
38	31
39	65
51	115
52	67
65	93
65.5	69
77	169
78	36
102	57
103	101
104	36
130	999
131	816
132	78
