Mass spectrum: 2-HYDROXYPYRIDINE; EI-MS
Name: 2-PYRIDINOL
Formula: C5H5NO
Exact mass: 95.03711
Instrument type: EI-MS
m/z	relative intensity
14	11
18	16
25	13
26	59
27	44
28	284
29	52
36	13
37	112
38	194
39	462
40	192
41	252
42	47
49	23
50	81
51	84
52	46
53	15
63	13
64	21
65	16
66	109
67	866
68	70
78	11
94	13
95	999
96	88
