Mass spectrum: 3,5-DIMETHYL-4-NITROISOXAZOLE; EI-MS
Formula: C5H6N2O3
Exact mass: 142.03784
Instrument type: EI-MS
m/z	relative intensity
26	61
27	144
29	48
30	17
31	15
37	14
38	54
39	14
40	113
41	163
42	348
43	999
45	23
50	17
51	36
52	5
53	48
54	137
55	26
56	3
57	26
60	13
62	18
63	3
64	12
65	32
66	25
67	9
68	14
69	32
70	25
71	5
80	46
81	40
82	17
83	17
84	18
85	12
95	20
96	4
142	194
143	14
