Mass spectrum: GLYCEROL; EI-MS
Formula: C3H8O3
Exact mass: 92.04734
Instrument type: EI-MS
m/z	relative intensity
15	238
17	18
18	65
19	77
26	22
27	67
28	30
29	255
30	34
31	450
32	19
33	21
42	96
43	800
44	472
45	139
55	17
56	14
57	115
60	113
61	999
62	58
74	15
75	149
93	232
