Mass spectrum: N-PARA-OCTYLPHENYL-2-PYRROLIDONE; EI-MS
Formula: C18H27NO
Exact mass: 273.20926
Instrument type: EI-MS
m/z	relative intensity
26	3
27	36
28	16
29	5
30	3
40	28
41	118
42	1
43	52
44	13
45	2
50	0
51	10
52	4
53	6
54	0
55	21
56	3
57	16
58	0
62	1
63	6
64	4
65	2
66	3
67	3
68	2
69	8
70	4
71	2
75	2
76	0
77	32
78	16
79	8
80	0
86	1
87	1
88	1
89	2
90	44
91	46
92	10
93	0
94	2
101	1
102	5
103	2
104	18
105	16
106	106
107	1
108	1
114	1
115	14
116	1
117	23
118	64
119	76
120	2
121	2
127	2
128	4
129	1
130	17
131	28
132	68
133	1
134	2
141	1
142	2
143	1
144	16
145	12
146	27
147	1
156	2
157	1
158	4
159	0
160	7
161	4
162	8
163	0
170	2
171	1
172	3
173	0
174	999
175	160
176	13
186	0
187	30
188	32
189	8
190	0
199	1
200	5
201	4
202	1
216	6
217	2
218	34
219	1
220	1
230	5
231	2
244	0
245	1
258	2
259	1
272	1
273	384
274	108
275	12
276	1
