Mass spectrum: TRANS-2-HEXENYL BUTYRATE; EI-MS
Formula: C10H18O2
Exact mass: 170.13068
Instrument type: EI-MS
m/z	relative intensity
26	10
27	214
28	35
29	104
39	154
40	17
41	387
42	61
43	605
44	20
53	47
54	100
55	278
56	34
57	68
67	240
68	13
71	999
72	38
81	26
82	148
83	100
89	22
99	28
100	27
170	13
