Mass spectrum: M-DICHLOROBENZENE; EI-MS
Formula: C6H4Cl2
Exact mass: 145.96901
Instrument type: EI-MS
m/z	relative intensity
37	30
38	20
50	95
51	3
55	50
73	80
74	105
75	18
76	28
84	25
85	30
110	3
111	330
112	30
113	90
146	999
147	70
148	660
149	50
150	105
