Mass spectrum: DIETHYL DIBUTYLMALONATE; EI-MS
Formula: C15H28O4
Exact mass: 272.19876
Instrument type: EI-MS
m/z	relative intensity
94	60
101	50
115	110
125	70
127	160
128	50
142	100
143	50
157	200
158	50
159	50
160	80
169	80
170	60
171	80
172	50
173	999
174	80
199	330
200	60
215	50
216	730
217	70
226	50
227	330
228	50
272	30
