Mass spectrum: METHYL IODIDE; EI-MS
Formula: CH3I
Exact mass: 141.92794
Instrument type: EI-MS
m/z	relative intensity
14	26
15	489
63.5	13
127	41
128	28
139	50
140	42
141	15
142	999
143	14
