Mass spectrum: 1-O-OCTADECYLGLYCEROL 2,3-DITRIMETHYLSILYLETHER; EI-MS
Name: 1-O-OCTADECYL-2,3-DI-O-TRIMETHYLSILYLGLYCEROL
Formula: C27H60O3Si2
Exact mass: 488.4081
Instrument type: EI-MS
m/z	relative intensity
57	15
71	36
73	17
75	3
82	12
83	27
84	9
85	4
95	10
96	16
97	31
98	2
99	31
101	10
103	38
105	1
110	11
111	27
112	11
113	2
115	14
116	53
117	200
118	2
119	29
125	20
127	20
129	9
130	232
131	140
132	41
133	28
134	36
135	22
137	8
139	1
141	14
145	24
147	201
148	3
149	37
153	8
155	11
159	1
163	10
167	8
169	10
175	2
177	32
183	8
186	9
189	1
191	9
204	89
205	999
206	20
207	93
208	14
221	20
222	1
250	8
251	8
281	17
308	2
327	13
341	78
342	22
383	2
384	22
385	19
398	24
473	4
474	16
