Mass spectrum: DIMETHYLHYDRAZONE TIGLYLALDEHYDE; EI-MS
Name: 2-METHYL-2-BUTENAL DIMETHYLHYDRAZONE
Formula: C7H14N2
Exact mass: 126.1157
Instrument type: EI-MS
m/z	relative intensity
26	13
28	325
29	270
30	30
31	11
37	11
38	3
39	27
40	65
41	298
42	760
43	52
44	999
45	300
46	176
49	1
50	24
51	35
52	38
53	22
54	116
55	406
56	214
57	6
58	111
59	81
63	62
65	5
66	22
67	270
68	90
69	3
70	214
71	54
72	46
80	1
81	257
82	930
83	227
84	11
85	11
94	46
95	68
96	10
97	46
98	35
108	7
109	3
110	243
111	460
112	38
125	3
126	676
127	66
