Mass spectrum: 6,7-DIMETHOXYCOUMARIN; EI-MS
Name: AESCULETIN DIMETHYL ETHER
Formula: C11H10O4
Exact mass: 206.05791
Instrument type: EI-MS
m/z	relative intensity
28	31
51	125
52	31
53	5
55	63
59	47
63	109
64	6
65	94
69	156
75	31
76	9
77	141
78	31
79	359
88	9
89	469
92	250
93	47
103	5
104	31
105	125
106	31
107	41
108	47
117	63
119	63
120	22
121	78
131	31
133	47
134	3
135	422
136	47
145	47
146	2
147	63
148	78
149	78
150	3
163	593
164	78
178	281
179	3
191	641
192	78
206	999
207	19
208	31
