Mass spectrum: 7-METHOXY-1,2,3-TRIMETHYLINDOLE; EI-MS
Formula: C12H15NO
Exact mass: 189.11536
Instrument type: EI-MS
m/z	relative intensity
45	31
77	35
91	38
94	7
119	47
131	40
146	117
159	3
173	31
174	574
175	106
188	10
189	999
190	169
