Mass spectrum: 1,6-DIMETHYL-3,4-(5'-CHLOROBENZO)-2-OXABICYCLO(4.1.0)HEPT-3-EN-5-ONE; EI-MS
Formula: C12H11ClO2
Exact mass: 222.04476
Instrument type: EI-MS
m/z	relative intensity
53	125
54	15
60	10
62	15
63	140
64	15
65	50
66	30
67	160
68	15
69	45
73	20
74	30
75	125
76	25
80	20
89	25
90	10
91	30
97	15
98	20
99	70
101	15
102	20
110	120
111	30
112	60
113	20
115	100
116	70
117	20
125	20
126	40
127	60
128	245
129	30
130	65
131	30
132	10
136	20
137	30
138	200
139	20
140	70
141	20
142	10
143	15
144	40
145	135
146	25
154	70
155	565
156	70
157	165
158	40
159	50
160	30
165	50
166	15
167	10
168	10
169	10
177	20
178	45
179	325
180	125
181	100
182	300
183	30
184	80
187	30
188	125
189	30
192	15
193	125
194	35
195	40
196	20
197	20
206	20
207	250
208	50
209	120
210	30
211	10
221	145
222	999
223	310
224	340
225	30
