Mass spectrum: 1-ADAMANTANECARBOXYLIC ACID TRIMETHYLSILYLESTER; EI-MS
Name: TRIMETHYLSILYL 1-ADAMANTANECARBOXYLATE
Formula: C14H24O2Si
Exact mass: 252.15456
Instrument type: EI-MS
m/z	relative intensity
43	23
44	14
45	98
51	1
55	18
65	107
67	126
73	30
75	178
77	262
78	122
79	27
91	14
93	215
107	103
135	999
136	164
186	10
237	460
238	112
