Mass spectrum: 1-CHLOROBIPHENYL; EI-MS
Formula: C12H9Cl
Exact mass: 188.03928
Instrument type: EI-MS
m/z	relative intensity
50	21
51	30
62	39
63	7
74	25
75	45
76	178
77	2
94	34
126	30
127	25
150	3
151	97
152	334
153	225
154	3
188	999
189	130
190	314
191	40
