Mass spectrum: BERYLLIUM DIACETONATE; EI-MS
Formula: C10H14BeO4
Exact mass: 207.10139
Instrument type: EI-MS
m/z	relative intensity
15	13
17	15
26	10
27	1
28	50
39	25
40	5
41	0
42	5
43	180
44	5
50	1
52	20
53	5
64	15
65	0
66	140
67	10
68	15
78	0
79	20
80	50
82	5
86	0
92	7
96	20
107	35
108	8
109	40
126	3
134	3
150	0
165	40
178	20
192	999
193	1
194	10
207	425
208	40
