Mass spectrum: 3-METHOXY-1-BUTANOL; EI-MS
Formula: C5H12O2
Exact mass: 104.08373
Instrument type: EI-MS
m/z	relative intensity
29	67
31	97
33	61
41	32
42	40
43	32
45	30
55	42
56	19
57	44
58	32
59	999
60	39
71	54
72	27
73	11
86	35
89	91
