Mass spectrum: ACETALDEHYDE DIBENZYL ACETAL; EI-MS
Formula: C16H18O2
Exact mass: 242.13068
Instrument type: EI-MS
m/z	relative intensity
39	46
41	11
43	16
51	50
52	11
63	17
65	113
77	72
78	16
79	64
89	22
90	29
91	999
92	482
93	26
105	20
107	135
108	22
133	18
134	47
151	15
