Mass spectrum: MENTHONE; EI-MS
Name: 5-METHYL-2-(1-METHYETHYL)CYCLOHEXANONE
Formula: C10H18O
Exact mass: 154.13577
Instrument type: EI-MS
m/z	relative intensity
56	305
69	659
70	324
83	234
84	182
95	148
97	240
111	226
112	999
121	41
125	65
139	357
140	33
154	254
155	26
