Mass spectrum: KOJIC ACID; EI-MS
Formula: C6H6O4
Exact mass: 142.02661
Instrument type: EI-MS
m/z	relative intensity
25	100
27	70
28	110
29	530
30	50
31	150
32	110
38	90
39	400
40	60
41	120
42	120
43	60
44	100
53	100
54	60
55	200
56	90
57	300
67	70
68	100
69	740
70	50
71	80
83	50
84	80
85	220
86	50
96	50
97	140
113	360
114	80
140	90
141	50
142	999
143	80
