Mass spectrum: METHANOL (D4); EI-MS
Name: METHYL ALCOHOL (D4)
Formula: CH4O
Exact mass: 32.02621
Instrument type: EI-MS
m/z	relative intensity
2	13
4	14
18	390
20	14
28	10
30	531
33	70
34	999
35	61
36	645
37	17
38	81
