Mass spectrum: 4,4',6,6'-TETRAPHENYL-2,2'-ETHYLENEDIOXYDIPYRIMIDINE; EI-MS
Formula: C34H26N4O2
Exact mass: 522.20558
Instrument type: EI-MS
m/z	relative intensity
39	10
58	25
76	13
77	10
83	29
85	12
88	32
91	3
102	19
103	37
104	58
115	3
116	25
117	12
128	44
129	13
130	21
141	12
142	12
143	4
156	20
170	18
171	46
189	1
199	20
203	10
204	32
205	1
206	10
210	30
230	16
231	11
232	41
233	12
245	20
246	1
247	513
248	168
249	93
250	1
258	12
261	32
273	485
274	84
275	999
276	178
277	20
