Mass spectrum: (Z,Z)-7,11-HEXADECADIENYL ACETATE; EI-MS
Formula: C18H32O2
Exact mass: 280.24023
Instrument type: EI-MS
m/z	relative intensity
41	94
42	20
43	445
44	93
45	167
46	776
47	19
54	30
55	999
56	80
57	94
58	8
59	115
60	10
61	68
65	2
66	35
67	449
68	186
69	19
70	42
71	49
72	43
73	11
75	18
77	30
78	13
79	11
80	88
81	457
82	271
83	11
84	16
85	16
86	33
87	10
88	36
89	156
91	22
92	1
93	79
94	62
95	200
96	24
97	125
98	15
99	28
101	4
102	32
103	72
105	11
106	1
107	63
109	80
110	85
111	2
115	12
117	23
119	12
120	2
121	89
122	65
123	87
124	8
125	14
131	23
132	14
133	7
134	13
135	60
136	46
137	5
138	38
147	26
148	13
149	6
150	29
151	15
152	13
163	4
164	18
177	24
220	33
