Mass spectrum: ISOBUTYL ACETATE; EI-MS
Formula: C6H12O2
Exact mass: 116.08373
Instrument type: EI-MS
m/z	relative intensity
18	240
27	70
28	15
31	1
39	10
40	10
41	65
42	1
43	999
44	20
45	10
55	2
56	570
57	45
61	140
70	7
72	320
73	30
79	10
87	30
