Mass spectrum: 1-PHENYL-1-(3,4-DIMETHYLPHENYL)ETHANE; EI-MS
Formula: C16H18
Exact mass: 210.14085
Instrument type: EI-MS
m/z	relative intensity
76	31
77	47
89	110
90	34
91	38
103	53
105	38
165	18
166	37
167	30
178	83
179	9
180	240
181	45
195	999
196	13
210	316
211	55
