Mass spectrum: 3-METHYLBUTYL BENZOATE; EI-MS
Name: ISOAMYL BENZOATE
Formula: C12H16O2
Exact mass: 192.11503
Instrument type: EI-MS
m/z	relative intensity
27	87
29	62
39	68
41	125
42	83
43	102
50	56
51	191
52	12
53	11
55	226
56	14
69	20
70	897
71	54
74	11
75	12
76	27
77	516
78	44
79	40
105	999
106	86
122	60
123	234
124	17
