Mass spectrum: 2-(2-(3-NITROPHENYL)-TRANS-VINYL)PYRIDINE; EI-MS
Formula: C13H10N2O2
Exact mass: 226.07423
Instrument type: EI-MS
m/z	relative intensity
62	17
63	59
64	15
75	5
76	94
77	162
78	113
79	1
80	13
87	12
88	11
89	11
90	72
101	28
102	32
104	3
139	14
140	19
141	44
149	1
150	30
151	81
152	194
153	9
154	35
165	10
166	16
167	8
168	18
177	25
178	269
179	11
180	261
181	32
192	10
193	2
194	10
195	26
196	10
209	1
210	179
211	35
223	46
224	4
225	999
226	656
227	11
