Mass spectrum: META IODOTOLUENE; EI-MS
Formula: C7H7I
Exact mass: 217.95924
Instrument type: EI-MS
m/z	relative intensity
38	15
39	95
41	24
50	41
51	36
61	10
62	30
63	82
64	21
65	376
66	17
89	77
90	50
91	967
92	70
127	11
128	7
217	7
218	999
219	72
