Mass spectrum: ISOBUTRIC ACID; EI-MS
Formula: C4H8O2
Exact mass: 88.05243
Instrument type: EI-MS
m/z	relative intensity
15	29
26	34
27	337
28	27
29	48
31	14
37	16
38	28
39	146
40	21
41	463
42	88
43	999
44	30
45	104
55	41
60	14
71	21
73	231
88	70
