Mass spectrum: NITRILOTRIACETIC ACID TRIMETHYL ESTER; EI-MS
Formula: C9H15NO6
Exact mass: 233.08994
Instrument type: EI-MS
m/z	relative intensity
42	317
45	639
46	17
56	6
57	25
72	21
88	21
100	2
102	25
103	12
115	51
116	9
118	17
146	412
147	21
158	1
160	17
173	12
174	999
175	9
188	25
201	34
233	111
