Mass spectrum: 2-HEPTANOYLFURAN; EI-MS
Formula: C11H16O2
Exact mass: 180.11503
Instrument type: EI-MS
m/z	relative intensity
39	11
41	30
42	20
43	88
54	40
55	97
56	28
67	28
68	109
69	19
81	69
82	48
84	29
94	10
95	628
96	66
97	40
109	10
110	999
111	225
112	17
123	419
124	58
137	39
138	11
151	45
152	36
180	19
181	10
