Mass spectrum: N-PENTYLACETAMIDE; EI-MS
Formula: C7H15NO
Exact mass: 129.11536
Instrument type: EI-MS
m/z	relative intensity
15	47
27	64
28	54
29	6
30	999
31	30
39	40
41	8
42	56
43	310
44	161
45	3
55	27
56	15
58	52
60	9
72	266
73	195
86	80
87	3
100	74
114	42
129	100
130	13
