Mass spectrum: 2-HEPTAFLUOROPROPYLBENZIMIDAZOL; EI-MS
Formula: C10H5F7N2
Exact mass: 286.0341
Instrument type: EI-MS
m/z	relative intensity
90	13
95	24
102	25
140	76
147	77
167	999
168	91
198	10
267	52
286	507
287	60
