Mass spectrum: 7-ACETOXY-4-METHYLCOUMARIN; EI-MS
Formula: C12H10O4
Exact mass: 218.05791
Instrument type: EI-MS
m/z	relative intensity
15	29
28	29
32	10
39	40
42	10
43	183
50	20
51	24
52	15
53	15
63	15
65	64
76	15
77	24
89	15
91	89
103	10
105	10
119	35
120	30
147	146
148	708
149	79
175	10
176	999
177	119
178	10
218	183
219	25
