Mass spectrum: L-ALANINE; EI-MS
Formula: C3H7NO2
Exact mass: 89.04768
Instrument type: EI-MS
m/z	relative intensity
13	10
14	39
15	237
16	16
17	43
18	995
19	28
25	11
26	78
27	234
28	711
29	81
30	48
38	20
39	34
40	104
41	168
42	526
43	167
44	999
45	138
46	79
55	30
74	92
