Mass spectrum: 2-ETHOXYETHANOL; EI-MS
Formula: C4H10O2
Exact mass: 90.06808
Instrument type: EI-MS
m/z	relative intensity
15	51
19	28
27	150
28	54
29	348
30	18
31	999
32	27
41	74
42	18
43	140
44	45
45	241
46	11
55	12
57	28
59	640
60	24
61	20
71	14
72	131
