Mass spectrum: 1-TERT-BUTYL-3-PIVALOYLCYCLOPROPENE; EI-MS
Formula: C12H20O
Exact mass: 180.15142
Instrument type: EI-MS
m/z	relative intensity
39	60
40	60
41	160
43	9
44	999
53	30
55	150
57	1
67	170
93	30
95	550
123	0
165	170
180	30
