Mass spectrum: 1,2-DIETHYLHYDRAZINE; EI-MS
Formula: C4H12N2
Exact mass: 88.10005
Instrument type: EI-MS
m/z	relative intensity
27	121
28	190
29	342
30	35
31	999
32	46
39	8
40	3
41	49
42	123
43	68
44	39
45	128
56	9
57	24
58	3
59	704
60	23
71	36
73	34
74	15
86	16
87	18
88	67
89	64
