Mass spectrum: CARYOPHYLLENE; EI-MS
Name: 4,11,11-TRIMETHYL-8-METHYLENEBICYCLO(7.2.0)UNDEC-4-ENE
Formula: C15H24
Exact mass: 204.1878
Instrument type: EI-MS
m/z	relative intensity
27	215
29	180
39	345
40	73
41	999
42	47
43	101
50	11
51	60
52	54
53	311
54	35
55	354
56	70
57	54
63	18
65	147
66	48
67	345
68	79
69	760
70	39
71	22
77	333
78	76
79	572
80	153
81	340
82	79
83	27
91	566
92	190
93	790
94	171
95	165
96	19
103	26
104	18
105	375
106	243
107	331
108	69
109	156
110	20
111	23
115	25
116	12
117	35
118	11
119	245
120	305
121	206
122	49
123	40
131	18
133	583
134	164
135	101
136	42
137	15
147	196
148	210
149	46
161	194
162	47
163	18
175	53
176	35
189	121
190	14
204	74
205	11
