Mass spectrum: HEXANAL ETHYL HEXYL ACETAL; EI-MS
Formula: C14H30O2
Exact mass: 230.22458
Instrument type: EI-MS
m/z	relative intensity
27	189
29	306
31	91
39	79
41	366
42	116
43	924
44	70
45	39
47	250
53	18
54	10
55	324
56	140
57	378
58	24
59	32
67	22
69	28
71	39
72	28
75	999
76	28
81	11
82	52
83	318
84	28
85	254
86	15
99	16
100	13
101	99
128	17
129	473
130	35
159	223
160	20
184	12
185	44
