Mass spectrum: O-NITROPHENOL; EI-MS
Formula: C6H5NO3
Exact mass: 139.02694
Instrument type: EI-MS
m/z	relative intensity
51	159
52	84
53	281
54	23
55	23
60	11
61	58
62	173
63	451
64	416
65	518
66	65
67	18
73	12
74	27
75	24
76	14
77	28
78	56
79	12
80	87
81	304
82	19
91	25
92	119
93	132
94	66
106	42
108	37
109	306
110	20
122	72
123	19
138	136
139	999
140	76
