Mass spectrum: PYRIDINE; EI-MS
Formula: C5H5N
Exact mass: 79.0422
Instrument type: EI-MS
m/z	relative intensity
25	13
26	124
27	38
28	49
37	42
38	50
39	103
40	12
49	62
50	290
51	361
52	721
53	82
75	16
76	14
78	113
79	999
80	56
