Mass spectrum: 2-(METHYLDIETHYLSILOXY)OCTANE; EI-MS
Formula: C13H30OSi
Exact mass: 230.20659
Instrument type: EI-MS
m/z	relative intensity
42	87
43	61
45	69
55	72
57	74
61	274
69	39
71	59
73	268
75	999
76	73
77	37
89	711
90	63
101	198
103	87
115	44
117	73
145	250
159	86
187	434
188	73
201	773
202	141
203	43
215	37
230	4
