Mass spectrum: ALLYL ACETATE; EI-MS
Formula: C5H8O2
Exact mass: 100.05243
Instrument type: EI-MS
m/z	relative intensity
29	13
39	31
40	20
41	88
42	10
43	999
44	24
57	82
58	148
61	31
72	13
85	6
100	7
