Mass spectrum: 4,4'-BUTYLIDENE-BIS(3-METHYL-6-TERT-BUTYLPHENOL); EI-MS
Formula: C26H38O2
Exact mass: 382.28718
Instrument type: EI-MS
m/z	relative intensity
18	20
41	42
57	128
148	75
161	22
162	47
176	56
177	53
203	23
219	21
323	31
339	999
340	245
341	38
382	92
383	27
