Mass spectrum: (E)-3,7-DIMETHYL-2,6-OCTADIEN-1-YL ACETATE; EI-MS
Name: GERANYL ACETATE
Formula: C12H20O2
Exact mass: 196.14633
Instrument type: EI-MS
m/z	relative intensity
51	40
52	20
53	109
54	10
55	73
60	184
63	11
65	51
66	17
67	195
68	379
69	641
70	39
77	210
78	40
79	238
80	223
81	87
82	15
84	14
85	30
91	239
92	203
93	999
94	140
95	31
103	14
105	87
106	27
107	91
108	22
109	10
115	10
117	11
119	38
121	308
122	29
123	14
127	10
136	287
137	31
