Mass spectrum: (CIS)FLAVAN-4-OL ACETATE; EI-MS
Name: CIS-2-PHENYLCHROMAN-4-YL ACETATE
Formula: C17H16O3
Exact mass: 268.10994
Instrument type: EI-MS
m/z	relative intensity
43	22
60	40
130	6
131	15
132	12
165	4
179	6
180	1
207	472
208	999
209	150
210	10
