Mass spectrum: 2-BUTOXYETHYL ACETATE; EI-MS
Formula: C8H16O3
Exact mass: 160.10994
Instrument type: EI-MS
m/z	relative intensity
15	58
27	104
28	31
29	237
31	25
39	52
41	317
42	45
43	999
44	125
45	99
55	45
56	496
57	929
58	54
61	73
70	21
71	23
72	13
73	37
74	70
85	210
86	12
87	390
88	127
100	105
117	10
