Mass spectrum: 3-METHYL-1-PROPYL-2-PYRAZOLINE; EI-MS
Formula: C7H14N2
Exact mass: 126.1157
Instrument type: EI-MS
m/z	relative intensity
26	13
27	93
28	35
29	4
30	18
39	40
41	88
42	33
43	27
52	5
53	9
54	3
55	22
56	70
57	7
58	0
68	33
69	200
70	13
81	1
82	7
83	50
84	9
95	2
96	15
97	999
98	73
124	1
125	13
126	215
127	18
