Mass spectrum: 4-METHYLBENZOIC ACID; EI-MS
Name: PTOLUIC ACID
Formula: C8H8O2
Exact mass: 136.05243
Instrument type: EI-MS
m/z	relative intensity
17	105
18	476
27	29
28	5
29	29
39	76
40	26
41	6
43	39
51	55
52	29
53	2
55	26
61	32
63	47
64	4
65	158
66	47
69	42
73	3
75	37
77	76
78	53
79	5
83	45
89	87
90	58
91	999
92	179
101	68
107	79
118	41
119	61
129	34
135	29
136	41
137	55
