Mass spectrum: 6-HYDROXY-4-OXO-4H-PYRIDO(1,2-A)PYRIMIDINE-3-ACETIC ACID ETHYL ESTER; EI-MS
Formula: C12H12N2O4
Exact mass: 248.07971
Instrument type: EI-MS
m/z	relative intensity
38	40
39	240
41	20
42	2
43	20
44	40
52	20
53	2
54	30
55	180
64	20
65	8
66	120
82	70
92	50
93	4
94	180
95	20
118	70
119	6
120	20
121	100
146	160
147	12
148	60
174	580
175	700
176	8
202	480
203	210
204	10
248	999
249	130
