Mass spectrum: 2,3-NONANEDIONE; EI-MS
Formula: C9H16O2
Exact mass: 156.11503
Instrument type: EI-MS
m/z	relative intensity
15	49
27	125
29	114
39	70
41	199
42	50
43	999
44	25
53	11
55	62
56	11
57	106
69	13
85	118
95	14
113	205
114	12
