Mass spectrum: TRIPROPIONIN; EI-MS
Name: GLYCEROL TRIPROPIONATE
Formula: C12H20O6
Exact mass: 260.12599
Instrument type: EI-MS
m/z	relative intensity
29	18
56	12
57	999
58	26
87	10
113	10
114	17
117	48
129	100
130	60
131	32
173	192
174	18
187	51
