Mass spectrum: BENZOTHIAZOLE; EI-MS
Formula: C7H5NS
Exact mass: 135.01427
Instrument type: EI-MS
m/z	relative intensity
27	18
29	10
37	26
38	4
39	49
40	14
41	12
43	4
45	80
50	43
51	21
53	1
54	76
57	16
58	83
61	2
62	37
63	103
64	28
67.5	3
69	202
70	14
71	15
74	3
75	19
76	12
77	15
81	5
82	135
83	10
84	33
91	10
93	16
107	19
108	358
109	4
110	20
134	17
135	999
136	10
137	52
