Mass spectrum: DICYCLOHEXYLCARBODIIMIDE; EI-MS
Formula: C13H22N2
Exact mass: 206.1783
Instrument type: EI-MS
m/z	relative intensity
27	320
28	140
29	356
30	15
39	325
40	48
41	999
42	88
43	510
52	15
53	155
54	150
55	960
56	95
65	15
66	13
67	142
68	60
69	40
77	10
79	28
80	11
81	245
82	143
83	330
84	16
95	40
96	48
124	95
125	73
151	11
163	95
164	49
177	22
