Mass spectrum: 4-OCTYLOXYBENZOIC ACID METHYL ESTER; EI-MS
Formula: C16H24O3
Exact mass: 264.17254
Instrument type: EI-MS
m/z	relative intensity
41	220
42	47
43	291
53	1
55	157
56	62
57	253
64	1
65	52
67	14
69	86
70	8
71	318
76	9
77	47
83	5
84	19
91	19
92	28
93	5
103	9
109	14
112	14
120	2
121	875
122	62
123	9
135	3
151	38
152	999
153	330
154	2
233	43
264	220
265	33
