Mass spectrum: 3-METHYL-3-BUTENYL BENZOATE; EI-MS
Formula: C12H14O2
Exact mass: 190.09938
Instrument type: EI-MS
m/z	relative intensity
27	71
29	19
39	126
41	111
42	12
50	47
51	193
52	17
53	76
55	15
66	10
67	162
68	999
69	48
74	11
76	25
77	482
78	29
79	13
105	819
106	53
123	29
