Mass spectrum: ETHYLCYLOPENTANE; EI-MS
Formula: C7H14
Exact mass: 98.10955
Instrument type: EI-MS
m/z	relative intensity
15	12
17	20
18	94
26	2
27	206
28	49
29	164
32	1
37	6
38	14
39	268
40	5
41	760
42	447
43	83
50	2
51	25
52	13
53	63
54	6
55	522
56	492
57	78
63	1
65	17
66	11
67	115
68	80
69	999
70	614
71	33
77	1
79	7
81	7
82	10
83	9
84	9
97	11
98	330
99	28
