Mass spectrum: BENZOIC ACID HEXYL ESTER; EI-MS
Name: HEXYL BENZOATE
Formula: C13H18O2
Exact mass: 206.13068
Instrument type: EI-MS
m/z	relative intensity
41	17
42	61
43	49
55	67
56	195
57	12
69	73
77	102
78	11
79	47
83	11
84	169
85	12
105	605
106	52
122	145
123	999
124	78
206	17
207	4
