Mass spectrum: 1-ETHYL-3,5,5-TRIMETHYL-3,4-DIHYDROFORMAZAN; EI-MS
Formula: C6H16N4
Exact mass: 144.1375
Instrument type: EI-MS
m/z	relative intensity
28	110
29	98
30	63
41	3
42	189
43	34
44	999
45	9
46	46
56	11
57	12
58	8
59	106
60	10
70	10
71	3
72	6
85	32
86	55
87	51
88	31
