Mass spectrum: 1-PHENYL-1-NONEN-3-ONE; EI-MS
Formula: C15H20O
Exact mass: 216.15142
Instrument type: EI-MS
m/z	relative intensity
28	67
40	83
41	76
51	7
54	19
63	19
75	19
77	24
78	24
102	72
103	405
104	7
117	53
128	19
131	999
132	10
145	107
146	624
147	76
173	2
174	12
187	19
215	19
216	14
217	29
