Mass spectrum: P-ACETOXY NITROBENZEN; EI-MS
Formula: C8H7NO4
Exact mass: 181.03751
Instrument type: EI-MS
m/z	relative intensity
15	66
28	86
29	21
30	20
38	28
39	52
42	28
43	999
44	40
63	49
64	25
65	61
81	22
93	44
109	62
123	35
139	86
181	54
