Mass spectrum: 4,7,7,11ALPHA-TETRAMETHYL-5BETA,8ALPHA-TRICYCLO(6.3.0.0(1,5))UNDEC-3-ENE; EI-MS
Formula: C15H24
Exact mass: 204.1878
Instrument type: EI-MS
m/z	relative intensity
79	32
81	149
82	32
83	4
85	49
91	135
92	49
93	8
94	54
95	135
99	24
105	17
106	211
107	154
108	76
109	6
117	27
119	157
120	73
121	10
122	76
123	999
124	108
125	2
127	24
131	30
133	243
134	6
135	35
136	24
145	27
146	3
147	662
148	314
149	105
159	2
161	119
162	51
175	76
187	2
189	549
190	103
204	514
205	149
