Mass spectrum: THIOPROPERAZINE; EI-MS
Formula: C22H30N4O2S2
Exact mass: 446.18102
Instrument type: EI-MS
m/z	relative intensity
41	229
42	599
43	860
44	37
55	109
56	279
57	189
58	28
70	999
71	419
72	69
84	11
85	149
96	49
97	139
98	15
99	99
111	169
113	990
114	17
127	569
139	49
141	259
179	7
180	49
196	79
197	109
198	17
199	49
210	99
211	149
212	23
214	39
223	49
224	59
225	4
237	19
238	69
239	29
266	1
267	9
268	9
287	19
305	2
306	29
319	69
320	159
321	3
332	59
333	39
338	49
345	3
346	29
359	9
375	49
388	1
400	9
446	219
