Mass spectrum: METHOXYACETONE; EI-MS
Name: 1-METHOXY-2-PROPANONE
Formula: C4H8O2
Exact mass: 88.05243
Instrument type: EI-MS
m/z	relative intensity
14	13
15	135
27	36
28	19
29	150
31	26
42	46
43	767
44	26
45	999
46	23
57	19
58	357
59	14
88	21
89	15
