Mass spectrum: DIETHYL FUMARATE; EI-MS
Formula: C8H12O4
Exact mass: 172.07356
Instrument type: EI-MS
m/z	relative intensity
69	31
71	135
72	40
73	3
81	75
82	173
83	27
98	3
99	760
100	116
101	28
117	4
125	23
126	253
127	999
128	10
129	23
143	40
145	20
