Mass spectrum: NONANE; EI-MS
Formula: C9H20
Exact mass: 128.1565
Instrument type: EI-MS
m/z	relative intensity
15	11
26	15
27	226
28	34
29	359
39	142
40	12
41	430
42	170
43	999
44	24
53	18
54	17
55	138
56	146
57	666
58	23
70	94
71	180
72	11
84	53
85	198
86	10
98	19
99	35
128	39
