Mass spectrum: 1,2,3,5-TETRACHLOROBENZENE; EI-MS
Formula: C6H2Cl4
Exact mass: 213.89106
Instrument type: EI-MS
m/z	relative intensity
72	28
73	50
74	65
84	4
89	20
90	20
107	57
108	12
109	90
110	29
143	77
144	3
145	50
146	25
179	155
180	4
181	150
183	50
214	798
215	7
216	999
217	77
218	490
219	3
220	100
