Mass spectrum: BETA-HOMOCYCLOCITRAL; EI-MS
Formula: C11H18O
Exact mass: 166.13577
Instrument type: EI-MS
m/z	relative intensity
41	382
55	294
69	588
81	794
95	618
107	941
123	471
133	412
151	999
166	235
