Mass spectrum: (E)-3,7-DIMETHYL-2,6-OCTADIENENITRILE; EI-MS
Name: TRANS-GERANYL NITRILE
Formula: C10H15N
Exact mass: 149.12045
Instrument type: EI-MS
m/z	relative intensity
41	86
69	999
70	40
81	4
121	12
134	90
148	20
149	39
