Mass spectrum: CHROMIUM TRIACETYLACETONATE; EI-MS
Formula: C15H21CrO6
Exact mass: 349.07433
Instrument type: EI-MS
m/z	relative intensity
15	10
18	20
27	10
28	4
29	5
39	10
41	15
42	0
43	175
52	35
55	7
67	1
69	10
78	10
85	37
93	1
100	25
108	25
109	8
111	2
133	25
134	5
135	10
136	4
137	5
149	20
151	410
152	2
166	7
167	10
168	105
169	2
175	5
210	7
224	65
225	1
234	35
235	5
247	50
248	0
249	999
250	212
251	50
252	7
