Mass spectrum: ORTHO NITRO PHENOL; EI-MS
Name: ORTHO HYDROXY NITROBENZENE
Formula: C6H5NO3
Exact mass: 139.02694
Instrument type: EI-MS
m/z	relative intensity
26	21
27	58
28	39
30	54
37	32
38	100
39	406
50	41
51	84
52	37
53	144
61	18
62	52
63	273
64	253
65	455
66	42
78	32
81	168
92	81
93	114
94	45
106	29
109	143
122	64
123	22
139	999
140	67
