Mass spectrum: ORTHO-METHYLANISOLE; EI-MS
Formula: C8H10O
Exact mass: 122.07316
Instrument type: EI-MS
m/z	relative intensity
65	94
77	272
79	140
91	36
92	81
107	461
122	999
123	93
