Mass spectrum: 2-(1-METHOXY-3-METHYLBUTYL)CYCLOHEXANONE; EI-MS
Formula: C12H22O2
Exact mass: 198.16198
Instrument type: EI-MS
m/z	relative intensity
42	368
43	257
45	553
53	73
55	160
57	70
59	421
67	123
69	858
70	78
71	199
81	614
82	66
85	212
95	71
97	157
98	253
100	129
101	999
102	65
109	112
111	131
123	70
141	541
166	193
169	114
198	101
