Mass spectrum: N-DODECYL-5-METHYL-2-PYRROLIDONE; EI-MS
Formula: C17H33NO
Exact mass: 267.25621
Instrument type: EI-MS
m/z	relative intensity
27	68
28	92
29	160
30	67
31	14
39	52
40	12
41	32
42	78
43	114
45	50
53	2
54	24
55	304
56	204
57	11
58	14
59	16
67	42
68	2
69	90
70	56
71	28
72	2
73	8
79	4
80	4
81	1
82	34
83	130
84	180
85	6
86	46
87	6
94	10
95	0
96	14
97	18
98	160
99	2
100	104
101	6
110	10
111	2
112	999
113	710
114	62
115	0
124	6
125	4
126	150
127	8
128	12
137	2
138	12
139	0
140	180
141	52
142	12
152	0
153	2
154	84
155	24
156	1
166	4
167	3
168	100
169	3
170	4
180	4
182	60
183	1
184	10
185	16
186	6
196	6
197	12
198	8
199	2
210	5
211	12
212	8
213	4
224	4
225	12
226	2
238	36
239	1
250	12
251	2
252	178
253	3
254	2
266	20
267	260
268	6
269	8
