Mass spectrum: ALLYL 2-FUROATE; EI-MS
Formula: C8H8O3
Exact mass: 152.04734
Instrument type: EI-MS
m/z	relative intensity
26	12
27	33
29	25
37	22
38	61
39	263
41	128
53	10
57	23
66	11
67	17
68	50
77	11
79	38
80	11
81	11
95	999
96	77
107	11
108	34
112	12
123	19
152	84
