Mass spectrum: 2-METHYLBENZOTHIOPYRAN-4-THIONE; EI-MS
Name: 2-METHYLTHIOCHROMOTHIONE
Formula: C10H8S2
Exact mass: 192.00674
Instrument type: EI-MS
m/z	relative intensity
27	53
28	38
29	40
39	157
41	86
43	63
45	106
50	50
51	58
55	73
57	51
58	38
59	63
61	33
62	65
63	85
69	195
73	35
74	55
75	40
76	30
77	60
81	37
82	55
83	41
89	47
93	65
108	144
114	35
115	130
116	32
121	80
128	37
145	32
146	32
147	340
148	141
149	50
152	33
158	45
159	42
175	97
190	113
191	440
192	999
193	130
194	96
195	15
