Mass spectrum: 2-(3-DIETHYLAMINOPROPIONYL)-5,7-DIMETHYL-1,2,3,4-TETRAHYDROPYRIMIDO(1,6-A)INDOLE; EI-MS
Formula: C20H29N3O
Exact mass: 327.23106
Instrument type: EI-MS
m/z	relative intensity
58	214
72	34
86	999
87	6
101	75
115	18
126	20
127	3
128	30
143	23
144	15
155	2
156	141
157	62
158	111
170	6
171	327
172	83
198	48
199	71
200	100
212	20
241	77
312	2
326	13
327	510
