Mass spectrum: 2,5-DIMETHOXYPHENYLACETIC ACID TRIMETHYLSILYL ESTER; EI-MS
Name: TRIMETHYLSILYL 2,5-DIMETHOXYPHENYLACETATE
Formula: C13H20O4Si
Exact mass: 268.11309
Instrument type: EI-MS
m/z	relative intensity
45	76
47	29
65	34
73	999
74	59
75	282
77	111
78	4
89	38
91	55
121	72
134	3
135	64
151	42
163	42
178	3
179	59
193	59
194	123
195	3
207	29
209	435
210	102
211	3
224	25
238	128
239	29
253	8
268	329
269	64
