Mass spectrum: LINOLEIC ACID TRIMETHYLSILYL ESTER; EI-MS
Name: CIS-9,CIS-12-OCTADECADIENOIC ACID TRIMETHYLSILYL ESTER
Formula: C21H40O2Si
Exact mass: 352.27976
Instrument type: EI-MS
m/z	relative intensity
53	126
54	401
55	358
61	10
67	760
68	282
69	236
73	98
74	91
75	999
77	124
79	34
80	239
81	796
82	326
83	18
91	109
93	181
94	186
95	56
96	256
97	153
107	155
108	11
109	227
110	144
117	320
121	20
123	102
124	100
129	252
131	11
135	183
150	128
164	82
178	9
262	86
337	120
338	40
