Mass spectrum: 3-CHLORO-4,4-DIMETHOXY-2-METHYL-1-BUTENE; EI-MS
Name: 2-CHLORO-3-METHYL-3-BUTENAL DIMETHYL ACETAL
Formula: C7H13ClO2
Exact mass: 164.06041
Instrument type: EI-MS
m/z	relative intensity
27	44
29	44
31	54
39	6
41	56
43	74
45	17
47	15
51	14
53	45
55	55
57	2
58	20
59	12
65	32
67	3
69	10
73	10
75	999
76	4
83	35
92	12
97	17
98	2
101	17
103	12
129	21
133	10
135	32
