Mass spectrum: PARA-NITROBENZOIC ACID; EI-MS
Name: 4-NITROBENZOIC ACID
Formula: C7H5NO4
Exact mass: 167.02186
Instrument type: EI-MS
m/z	relative intensity
26	10
27	39
29	13
30	404
37	30
38	51
39	226
45	78
46	61
49	16
50	261
51	181
52	15
53	65
61	14
62	25
63	63
64	38
65	999
66	57
73	21
74	145
75	182
76	180
77	28
81	126
92	51
93	53
103	55
104	73
105	16
109	163
110	11
120	16
121	242
122	25
135	15
137	146
138	15
150	106
151	162
152	19
167	771
168	146
169	16
