Mass spectrum: L-ASCORBIC ACID; EI-MS
Name: VITAMIN C
Formula: C6H8O6
Exact mass: 176.03209
Instrument type: EI-MS
m/z	relative intensity
15	12
30	10
31	58
39	13
41	7
42	17
43	106
44	19
45	26
53	6
54	12
55	47
56	10
57	14
58	23
59	12
60	11
61	41
68	7
69	19
70	27
71	50
72	10
73	19
74	5
76	11
81	9
83	6
84	9
85	97
86	5
87	17
88	6
89	9
91	12
95	27
97	17
100	13
101	26
102	18
113	28
115	38
116	170
117	12
119	30
129	28
130	7
131	22
141	95
142	7
159	48
161	7
176	27
177	999
178	71
179	15
