Mass spectrum: 2-OCTANONE; EI-MS
Formula: C8H16O
Exact mass: 128.12012
Instrument type: EI-MS
m/z	relative intensity
15	40
27	124
29	102
39	91
41	171
42	46
43	999
44	20
53	12
55	45
57	38
58	789
59	147
68	12
70	15
71	153
72	11
85	47
113	20
128	51
