Mass spectrum: 3-BENZOYLAMINOCHROMONE; EI-MS
Name: 3-BENZAMIDO-4H-CHROMEN-4-ONE
Formula: C16H11NO3
Exact mass: 265.07389
Instrument type: EI-MS
m/z	relative intensity
28	45
50	51
51	142
76	5
77	648
78	43
105	999
106	10
133	21
149	38
265	451
266	72
