Mass spectrum: ETHYL 2-METHYL-1,3-DIOXOLANE-2-ACETATE; EI-MS
Formula: C8H14O4
Exact mass: 174.08921
Instrument type: EI-MS
m/z	relative intensity
15	35
27	74
28	23
29	163
31	23
39	50
40	16
41	66
42	87
43	620
44	21
45	42
58	13
59	37
69	16
71	10
72	16
85	25
86	27
87	999
88	44
89	57
99	10
117	25
131	11
159	112
