Mass spectrum: ACETOL ACETATE; EI-MS
Name: ACETYLMETHYL ACETATE
Formula: C5H8O3
Exact mass: 116.04734
Instrument type: EI-MS
m/z	relative intensity
14	12
15	76
18	13
27	23
29	35
42	59
43	999
44	23
73	37
74	11
86	92
116	51
