Mass spectrum: ORTHO-TOLYL BENZOATE; EI-MS
Name: BENZOIC ACID 2-METHYLPHENYL ESTER
Formula: C14H12O2
Exact mass: 212.08373
Instrument type: EI-MS
m/z	relative intensity
27	24
28	46
39	28
50	30
51	92
77	310
78	31
105	999
106	91
212	52
213	12
