Mass spectrum: 6-METHYLSALICYLIC ACID; EI-MS
Formula: C8H8O3
Exact mass: 152.04734
Instrument type: EI-MS
m/z	relative intensity
35	3
37	12
38	26
39	102
40	5
41	25
42	4
43	20
44	9
45	10
46	2
47	6
48	3
49	5
50	45
51	111
52	75
53	44
54	6
55	22
56	11
57	32
58	3
59	16
60	7
61	12
62	23
63	44
64	10
65	14
66	15
67	29
68	4
69	16
70	8
71	17
72	1
73	9
74	16
75	17
76	22
77	174
78	306
79	48
80	5
81	9
82	5
83	23
84	5
85	15
86	4
87	5
88	2
89	10
90	6
91	9
92	3
93	5
94	2
95	10
96	5
97	10
98	4
99	6
100	2
101	2
102	1
103	2
104	8
105	337
106	412
107	53
108	19
109	6
110	4
111	7
112	4
113	5
114	1
115	2
116	3
117	3
118	7
119	4
120	2
121	5
122	2
123	5
124	2
125	4
126	1
127	2
128	2
129	5
130	2
131	1
132	2
133	8
134	999
135	123
136	11
137	3
138	3
139	2
140	2
141	3
143	3
144	1
145	2
146	5
147	2
148	6
149	46
150	5
151	6
152	482
153	51
154	6
155	2
