Mass spectrum: CIS-3-HEXENYL LACTATE; EI-MS
Formula: C9H16O3
Exact mass: 172.10994
Instrument type: EI-MS
m/z	relative intensity
15	24
19	26
26	14
27	19
29	135
30	10
31	17
39	18
41	378
42	62
43	148
44	2
45	999
46	18
51	18
53	8
54	100
55	446
56	38
57	1
65	14
66	12
67	823
68	5
69	22
70	23
75	20
79	1
81	71
82	826
83	136
99	36
