Mass spectrum: SUCCINIC ACID; EI-MS
Formula: C4H6O4
Exact mass: 118.02661
Instrument type: EI-MS
m/z	relative intensity
17	63
18	275
25	33
26	16
27	155
28	999
29	46
32	3
36	27
41	28
42	31
43	3
44	29
53	28
55	40
56	44
57	32
73	31
74	18
100	26
