Mass spectrum: 1,5-DIMETHYL-2-PYRAZOLINE; EI-MS
Formula: C5H10N2
Exact mass: 98.0844
Instrument type: EI-MS
m/z	relative intensity
26	29
27	140
28	135
29	9
30	57
37	7
38	18
39	9
40	31
41	82
42	725
43	6
44	6
45	9
50	7
51	1
52	13
53	22
54	35
55	6
56	470
57	25
65	8
67	2
68	6
69	6
81	14
82	1
83	999
84	52
95	5
97	4
98	353
99	22
