Mass spectrum: 1-METHYLPIPERIDINE; EI-MS
Formula: C6H13N
Exact mass: 99.1048
Instrument type: EI-MS
m/z	relative intensity
26	47
27	181
29	109
30	8
38	17
39	153
40	33
41	21
42	620
43	700
45	12
50	1
51	18
52	18
53	36
54	5
55	123
56	127
57	186
58	18
59	11
67	25
68	45
69	2
70	310
71	120
80	22
81	2
82	39
83	20
84	235
85	7
85.5	29
96	48
97	24
98	999
99	400
100	32
