Mass spectrum: ACRYLONITRILE; EI-MS
Name: 2-PROPENENITRILE
Formula: C3H3N
Exact mass: 53.02655
Instrument type: EI-MS
m/z	relative intensity
24	37
25	102
26	785
27	16
28	44
36	36
37	62
38	10
39	30
50	91
51	335
52	80
53	999
54	32
