Mass spectrum: 9-ACETOXY-4,4-ETHYLENEDIOXY-1-METHOXYCARBONYL-9-METHYL-7-OXABICYCLO(4.3.0)NONAN-8-ONE; EI-MS
Formula: C15H20O8
Exact mass: 328.11582
Instrument type: EI-MS
m/z	relative intensity
41	151
42	108
43	552
44	5
45	65
51	26
53	68
54	3
55	144
56	131
57	131
59	4
60	52
61	29
65	40
66	3
67	63
68	33
69	71
70	8
71	89
73	47
77	45
78	3
79	45
81	47
82	31
83	5
84	39
85	51
86	444
87	33
88	35
89	46
91	37
93	3
95	48
96	28
97	47
98	3
99	999
100	125
101	32
105	3
107	25
109	35
111	29
112	3
113	110
114	68
115	190
116	3
121	32
124	30
126	28
127	3
129	47
137	36
138	27
139	5
140	27
141	26
144	96
145	3
148	29
149	40
153	37
154	9
155	123
156	27
165	73
166	3
167	55
168	31
179	29
181	4
183	59
186	39
193	29
197	9
195	34
199	89
204	26
209	40
210	78
211	37
214	60
224	4
225	45
239	74
241	52
242	3
253	50
255	37
268	129
269	8
270	26
297	25
298	22
328	4
329	21
