Mass spectrum: 3-METHYLCARBAZOLE; EI-MS
Formula: C13H11N
Exact mass: 181.08915
Instrument type: EI-MS
m/z	relative intensity
29	16
39	25
41	10
42	1
50	11
51	23
52	11
62	1
63	29
64	10
74	17
75	3
75.5	13
76	41
76.5	11
77	8
77.5	14
87	11
89	33
89.5	4
90	74
90.5	79
91	15
102	2
103	12
113	11
115	10
126	2
127	34
128	23
139	12
140	2
150	15
151	40
152	120
153	4
154	24
164	10
177	24
178	8
179	89
180	821
181	999
182	15
183	10
