Mass spectrum: 2-HEXANONE; EI-MS
Formula: C6H12O
Exact mass: 100.08882
Instrument type: EI-MS
m/z	relative intensity
15	40
26	17
27	125
29	150
39	73
41	165
42	47
43	999
44	23
55	19
57	162
58	500
59	24
71	50
72	10
85	53
100	121
