Mass spectrum: N-ACETYL-ALANYL-ALANYL-GLYCINE METHYL ESTER; EI-MS
Formula: C11H19N3O5
Exact mass: 273.13247
Instrument type: EI-MS
m/z	relative intensity
15	40
27	17
28	120
29	1
30	70
32	20
41	13
42	5
43	107
44	999
45	32
55	2
56	40
57	13
70	27
71	2
72	44
85	12
86	187
87	14
88	21
90	24
99	29
113	1
114	106
127	19
145	30
157	12
158	49
185	32
187	18
273	10
