Mass spectrum: (4R)-1-ACETOXY-4-(TERT-BUTYLDIMETHYLSILYLOXY)-5-PIVALOYLOXYHEXENE; EI-MS
Formula: C19H36O5Si
Exact mass: 372.2332
Instrument type: EI-MS
m/z	relative intensity
43	72
57	407
58	27
73	9
75	41
79	35
86	145
97	11
115	143
117	34
159	389
160	5
161	23
171	999
172	157
173	6
201	22
213	112
214	20
273	3
315	53
316	15
317	6
