Mass spectrum: TERT-BUTYLBENZENE; EI-MS
Formula: C10H14
Exact mass: 134.10955
Instrument type: EI-MS
m/z	relative intensity
15	23
27	30
28	16
29	17
39	72
40	6
41	126
42	5
50	24
51	65
52	16
53	11
57	10
58	11
63	26
64	6
65	36
66	4
74	10
75	10
76	12
77	93
78	46
79	78
80	5
89	12
90	3
91	501
92	40
102	18
103	64
104	18
105	12
115	35
116	9
117	29
118	16
119	999
120	102
121	5
134	316
135	34
