Mass spectrum: CITRONELLYL FORMATE; EI-MS
Name: FORMIC ACID 3,7-DIMETHYL-6-OCTEN-1-OL ESTER
Formula: C11H20O2
Exact mass: 184.14633
Instrument type: EI-MS
m/z	relative intensity
32	999
40	204
41	244
55	528
56	254
68	400
69	999
81	465
82	496
95	376
96	125
109	192
123	350
138	162
141	27
