Mass spectrum: 2,4,6-TRIHYDROXYBENZOIC ACID METHYL ESTER; EI-MS
Formula: C8H8O5
Exact mass: 184.03717
Instrument type: EI-MS
m/z	relative intensity
38	24
39	43
41	18
42	6
50	62
51	31
53	55
55	3
65	31
66	18
67	49
68	2
69	186
78	74
95	43
96	14
110	18
111	68
115	49
123	6
124	503
125	18
152	999
153	23
184	447
185	62
