Mass spectrum: PROPYL ALCOHOL; EI-MS
Name: 1-PROPANOL
Formula: C3H8O
Exact mass: 60.05751
Instrument type: EI-MS
m/z	relative intensity
15	16
17	17
18	74
26	38
27	142
28	34
29	106
30	17
31	999
32	11
38	12
39	49
41	70
42	106
43	35
45	16
57	11
59	147
60	88
