Mass spectrum: BENZANILIDE; EI-MS
Formula: C13H11NO
Exact mass: 197.08406
Instrument type: EI-MS
m/z	relative intensity
27	18
28	12
38	22
39	88
40	10
41	5
50	56
51	176
52	22
62	8
63	27
64	20
65	101
66	15
74	15
75	12
76	22
77	475
78	41
91	11
92	34
93	33
105	999
106	78
167	7
180	24
181	6
197	336
198	84
199	9
