Mass spectrum: P-TERT-BUTYLCYCLOHEXYL FORMATE; EI-MS
Formula: C11H20O2
Exact mass: 184.14633
Instrument type: EI-MS
m/z	relative intensity
27	51
29	134
31	11
39	74
40	11
41	309
42	18
43	69
44	21
53	47
54	62
55	127
56	329
57	999
58	50
65	11
67	323
68	22
69	57
77	15
79	51
80	135
81	215
82	389
83	269
84	15
95	23
123	154
124	12
127	34
128	32
129	84
138	49
139	15
