Mass spectrum: ETHYL 1,2-DIMETHYL-4-NITROINDOLE-3-CARBOXYLATE; EI-MS
Formula: C13H14N2O4
Exact mass: 262.09536
Instrument type: EI-MS
m/z	relative intensity
41	139
42	38
43	243
44	4
45	37
51	22
54	11
55	21
56	139
57	218
60	25
63	2
67	47
68	29
69	310
70	4
71	90
73	29
75	25
76	2
77	53
79	19
81	107
82	4
83	89
84	36
85	44
89	3
91	25
93	15
95	40
96	3
97	70
98	26
99	11
101	4
102	26
103	42
104	17
105	2
109	20
110	13
111	26
114	1
115	123
116	42
117	44
118	2
121	11
123	15
125	11
127	2
128	16
129	36
130	46
131	2
132	25
137	16
141	13
142	5
143	143
144	77
145	12
149	1
157	16
158	45
159	52
160	2
170	139
171	282
172	57
174	2
181	19
186	21
187	75
188	11
189	26
190	119
204	15
205	3
216	357
217	762
218	61
231	1
232	22
233	175
234	82
262	999
263	108
