Mass spectrum: TERT-BUTANOL; EI-MS
Name: 1,1-DIMETHYL ETHANOL
Formula: C4H10O
Exact mass: 74.07316
Instrument type: EI-MS
m/z	relative intensity
14	20
15	118
26	19
27	80
28	19
29	84
31	292
38	18
39	91
40	12
41	211
42	31
43	150
44	12
55	28
56	13
57	97
58	10
59	999
60	37
