Mass spectrum: 2,3-BUTANEDIONE; EI-MS
Name: DIACETYL
Formula: C4H6O2
Exact mass: 86.03678
Instrument type: EI-MS
m/z	relative intensity
14	32
15	127
18	21
26	16
27	17
28	12
29	14
39	48
41	200
42	89
43	999
44	24
51	12
53	22
69	24
86	110
87	13
