Mass spectrum: PENTANE; EI-MS
Formula: C5H12
Exact mass: 72.0939
Instrument type: EI-MS
m/z	relative intensity
14	13
15	42
26	31
27	304
29	211
38	16
39	161
40	27
41	479
42	594
43	999
44	34
53	13
55	36
56	30
57	155
71	15
72	115
