Mass spectrum: 2-HYDROXY-4-METHOXYBENZOPHENONE; EI-MS
Formula: C14H12O3
Exact mass: 228.07864
Instrument type: EI-MS
m/z	relative intensity
122	16
150	30
151	639
152	6
211	23
227	999
228	934
229	14
230	13
