Mass spectrum: 2-NAPHTHYL ETHYL ETHER; EI-MS
Name: 2-ETHOXYNAPHTHALENE
Formula: C12H12O
Exact mass: 172.08882
Instrument type: EI-MS
m/z	relative intensity
27	56
29	53
39	24
50	13
51	22
62	20
63	61
65	26
74	16
75	23
76	10
77	21
87	15
88	16
89	67
101	12
113	18
114	29
115	497
116	125
126	26
127	59
128	25
129	12
143	18
144	999
145	108
172	546
173	75
