Mass spectrum: BENZYL FORMATE; EI-MS
Name: FORMIC ACID BENZYL ESTER
Formula: C8H8O2
Exact mass: 136.05243
Instrument type: EI-MS
m/z	relative intensity
27	45
29	75
31	24
38	36
39	164
40	13
41	45
43	31
50	91
51	205
52	53
53	28
62	38
63	100
64	31
65	226
77	272
78	58
79	358
80	42
89	201
90	897
91	999
92	75
105	30
107	309
108	345
109	27
136	704
137	62
