Mass spectrum: BUTANE; EI-MS
Formula: C4H10
Exact mass: 58.07825
Instrument type: EI-MS
m/z	relative intensity
27	73
28	191
29	245
41	17
42	119
43	999
44	31
57	3
58	131
