Mass spectrum: 4-IODO-3,5-DIMETHYLISOXAZOLE; EI-MS
Formula: C5H6INO
Exact mass: 222.94941
Instrument type: EI-MS
m/z	relative intensity
26	72
27	340
29	33
30	1
31	6
36	10
37	29
38	7
39	185
40	69
41	52
42	16
43	855
45	13
50	21
51	5
52	89
53	56
54	625
55	4
56	11
61	16
62	35
63	7
64	25
65	72
66	43
67	2
68	52
69	10
80	12
81	17
82	14
96	408
97	28
101	1
127	155
128	102
139	38
141	2
153	27
154	118
165	30
166	5
167	14
180	127
181	348
182	3
194	60
198	34
199	59
200	8
201	44
202	78
204	24
208	21
209	10
222	14
223	999
224	65
