Mass spectrum: CIS-3-HEXENYL 2-METHYLBUTYRATE; EI-MS
Formula: C11H20O2
Exact mass: 184.14633
Instrument type: EI-MS
m/z	relative intensity
27	126
29	236
39	138
41	392
42	35
43	18
53	55
54	69
55	204
56	43
57	849
58	31
67	754
68	49
69	13
79	11
81	58
82	999
83	93
85	289
86	15
103	18
