Mass spectrum: 4-METHYL-2-(TRIMETHYLSILYL)OXYBENZOIC ACIDTRIMETHYLSILYL ESTER; EI-MS
Name: TRIMETHYLSILYL 4-METHYL-2-TRIMETHYLSILOXYBENZOATE
Formula: C14H24O3Si2
Exact mass: 296.1264
Instrument type: EI-MS
m/z	relative intensity
43	56
73	999
74	83
75	13
77	59
105	78
133	67
147	5
149	202
207	151
223	135
281	86
282	210
283	86
