Mass spectrum: ACETALDEHYDE DIMETHYL ACETAL; EI-MS
Formula: C4H10O2
Exact mass: 90.06808
Instrument type: EI-MS
m/z	relative intensity
14	13
15	158
26	20
27	71
29	320
30	19
31	364
33	12
41	16
42	23
43	252
45	14
47	111
58	24
59	999
60	27
75	344
89	12
