Mass spectrum: ANTHRANILIC ACID ISOBUTYL ESTER; EI-MS
Name: ORTHO AMINO ISOBUTYLBENZOATE
Formula: C11H15NO2
Exact mass: 193.11028
Instrument type: EI-MS
m/z	relative intensity
29	38
39	49
41	76
43	33
55	27
57	92
63	17
64	24
65	162
66	19
69	37
71	24
91	37
92	276
93	48
95	11
97	15
119	999
120	331
121	29
137	397
138	30
193	206
194	23
