Mass spectrum: ISONEOBAVAISOFLAVONE; EI-MS
Name: 2',3'-DIHYDRO-7-HYDROXY-2',2'-DIMETHYL-3,6'-BI(4H-1-BENZOPYRAN)-4-ONE
Formula: C20H18O4
Exact mass: 322.12051
Instrument type: EI-MS
m/z	relative intensity
63	11
77	17
95	8
131	67
137	317
146	11
237	183
238	33
239	17
266	67
267	567
268	111
279	72
293	101
305	28
307	111
321	28
322	999
323	150
