Mass spectrum: (2,2,2,-2H3)ACETOPHENONE; EI-MS
Formula: C8H8O
Exact mass: 120.05751
Instrument type: EI-MS
m/z	relative intensity
18	46
27	24
28	24
37	12
38	22
385	12
39	27
40	13
46	180
50	111
51	267
52	32
525	14
53	13
63	11
74	38
75	26
76	30
77	809
78	65
79	26
105	999
106	81
122	14
123	455
124	44
