Mass spectrum: METHYL PROPIONATE; EI-MS
Formula: C4H8O2
Exact mass: 88.05243
Instrument type: EI-MS
m/z	relative intensity
14	20
15	241
26	66
27	234
28	112
29	798
30	22
31	97
32	28
33	12
42	23
43	20
45	31
55	42
56	32
57	999
58	37
59	319
87	26
88	328
89	17
