Mass spectrum: DIETHYLENE GLYCOL; EI-MS
Formula: C4H10O3
Exact mass: 106.06299
Instrument type: EI-MS
m/z	relative intensity
15	38
19	55
27	125
28	28
29	136
30	12
31	136
42	15
43	113
44	92
45	999
46	21
47	14
58	11
75	240
76	110
