Mass spectrum: 4-HYDROXY-5,8-DIMETHYL-5-PROPYL-1,7-NONADIENE; EI-MS
Formula: C14H26O
Exact mass: 210.19837
Instrument type: EI-MS
m/z	relative intensity
25	12
26	102
27	167
28	167
29	122
31	10
37	20
38	40
39	260
40	102
41	675
42	168
43	600
44	32
45	20
50	28
51	32
52	27
53	112
54	42
55	407
56	150
57	120
58	20
65	28
66	22
67	166
68	67
69	990
70	314
71	999
72	63
77	45
78	20
79	73
80	18
81	140
82	37
83	180
84	77
85	57
91	52
92	10
93	51
94	18
95	133
96	33
97	118
98	57
99	202
100	50
105	13
107	40
108	12
109	123
110	23
111	40
112	10
113	18
121	28
123	42
124	10
125	17
126	18
136	10
138	22
139	80
140	90
141	46
149	18
150	10
151	343
152	50
167	30
168	28
169	83
210	100
