Mass spectrum: ISOPULEGYL ACETATE(EQUATORIAL); EI-MS
Formula: C12H20O2
Exact mass: 196.14633
Instrument type: EI-MS
m/z	relative intensity
42	2
43	774
44	18
53	4
54	2
55	56
56	20
57	12
58	5
59	6
61	4
67	38
68	92
69	122
70	15
71	51
72	10
77	2
78	4
79	85
80	167
81	460
82	69
83	29
84	47
85	34
86	4
91	6
92	99
93	407
94	261
95	126
96	21
97	60
98	30
99	8
100	2
101	9
105	4
106	4
107	354
108	146
109	126
110	36
111	45
112	27
113	7
120	18
121	460
122	46
123	21
124	6
125	8
134	9
135	52
136	999
137	122
138	31
139	40
140	4
145	9
152	8
153	15
154	19
163	11
196	48
197	7
