Mass spectrum: 1-HEPTANOL; EI-MS
Formula: C7H16O
Exact mass: 116.12012
Instrument type: EI-MS
m/z	relative intensity
40	60
41	999
42	599
43	81
44	77
45	64
51	12
53	4
54	54
55	646
56	766
57	23
58	13
59	5
65	4
67	2
68	93
69	354
70	633
71	5
72	3
73	16
77	3
79	0
81	7
82	3
83	47
84	1
85	6
86	3
87	2
97	1
98	12
99	3
