Mass spectrum: 2-TRIMETHYLSILYLHEXANOIC ACID; EI-MS
Formula: C9H20O2Si
Exact mass: 188.12326
Instrument type: EI-MS
m/z	relative intensity
45	53
47	43
55	12
59	13
60	11
61	48
72	27
73	957
74	91
75	999
76	77
77	41
81	26
116	24
117	348
118	32
119	14
129	61
131	124
132	148
133	18
143	11
145	57
146	11
159	15
173	747
174	103
175	39
188	13
