Mass spectrum: NONANOIC ACID TRIMETHYLSILYL ESTER; EI-MS
Formula: C12H26O2Si
Exact mass: 230.17021
Instrument type: EI-MS
m/z	relative intensity
43	397
45	106
47	106
55	20
57	60
61	63
69	60
73	96
74	99
75	999
76	78
77	17
81	85
117	489
129	148
131	14
132	148
145	78
215	336
216	60
