Mass spectrum: ISOPROPYL P-METHOXYSTYRYL KETONE; EI-MS
Name: 5-(4-METHOXYPHENYL)-2-METHYL-4-PENTEN-3-ONE
Formula: C13H16O2
Exact mass: 204.11503
Instrument type: EI-MS
m/z	relative intensity
15	17
27	60
39	46
41	57
43	47
50	14
51	29
53	10
62	12
63	45
64	31
65	14
75	13
76	16
77	63
79	26
89	64
90	72
91	15
92	28
101	11
102	28
103	30
117	12
118	62
133	210
134	18
161	999
162	105
204	75
205	11
