Mass spectrum: O-DIETHOXYBENZENE; EI-MS
Name: 1,2-DIETHOXYBENZENE
Formula: C10H14O2
Exact mass: 166.09938
Instrument type: EI-MS
m/z	relative intensity
26	19
27	119
29	91
39	31
43	19
45	12
50	19
51	42
52	63
53	53
55	13
63	34
64	41
65	57
77	17
79	11
80	15
81	203
82	22
91	13
92	23
93	17
95	12
109	261
110	999
111	60
121	27
137	10
138	82
166	392
167	36
