Mass spectrum: 1,3,5-TRI-O-ACETYL-6-DEOXY-2,4-DI-O-METHYLGALACTITOL; EI-MS
Name: 1,3,5-TRI-O-ACETYL-2,4-DI-O-METHYLFUCITOL
Formula: C14H24O8
Exact mass: 320.14712
Instrument type: EI-MS
m/z	relative intensity
43	999
44	70
45	60
57	20
58	70
59	40
71	60
72	80
74	40
75	50
85	100
87	70
89	280
99	120
101	260
113	70
117	840
118	60
127	110
131	360
159	130
173	110
201	60
233	120
