Mass spectrum: 2-ETHYL-1-BUTANOL; EI-MS
Formula: C6H14O
Exact mass: 102.10447
Instrument type: EI-MS
m/z	relative intensity
27	26
29	91
31	68
39	17
41	159
42	110
43	999
44	34
45	22
53	12
55	369
56	177
57	38
59	18
69	177
70	735
71	577
72	34
84	308
85	99
101	6
102	3
