Mass spectrum: 1-METHOXY-4-METHYLBENZENE; EI-MS
Name: PARA-METHYLANISOLE
Formula: C8H10O
Exact mass: 122.07316
Instrument type: EI-MS
m/z	relative intensity
15	19
26	11
27	55
28	20
38	19
39	95
41	15
50	53
51	109
52	64
53	51
61	14
62	20
63	54
64	16
65	63
74	11
75	10
77	282
78	89
79	239
80	15
89	24
90	20
91	187
92	62
93	13
107	286
108	26
121	11
122	999
123	91
