Mass spectrum: ALLYL METHYL DISULFIDE; EI-MS
Formula: C4H8S2
Exact mass: 120.00674
Instrument type: EI-MS
m/z	relative intensity
39	96
41	999
42	36
43	3
45	81
57	60
64	15
70	2
71	43
72	29
73	87
74	3
79	52
80	50
85	26
87	3
120	716
121	45
122	63
