Mass spectrum: 1-OXO-5,6-DIHYDRO-1H-PYRIMIDO(1,2-A)QUINOLINE-2-CARBOXYLIC ACID; EI-MS
Formula: C13H10N2O3
Exact mass: 242.06914
Instrument type: EI-MS
m/z	relative intensity
77	270
89	86
90	57
91	6
101	74
102	89
103	220
104	8
115	74
116	69
117	84
128	23
129	78
130	550
131	61
142	7
143	75
144	50
155	39
156	2
168	42
169	300
170	620
171	8
197	340
198	999
199	130
214	1
225	31
242	560
243	84
