Mass spectrum: 2-TRIMETHYLSILOXY-1,3-CYCLOHEXADIENE; EI-MS
Formula: C9H16OSi
Exact mass: 168.09704
Instrument type: EI-MS
m/z	relative intensity
43	86
44	96
45	152
59	112
68	396
73	999
74	127
75	660
76	112
77	137
94	91
96	183
151	594
152	91
153	183
166	137
167	142
168	589
169	137
