Mass spectrum: CARVOMENTHONE; EI-MS
Name: 2-METHYL-5-(1-METHYLETHYL)CYCLOHEXANONE
Formula: C10H18O
Exact mass: 154.13577
Instrument type: EI-MS
m/z	relative intensity
55	284
56	40
69	101
70	28
71	12
72	25
81	22
82	66
83	169
84	54
95	88
96	64
97	114
98	17
110	119
111	999
112	104
125	29
126	25
154	267
155	30
