Mass spectrum: 2-(2-ETHOXYETHOXY)ETHYL ACETATE; EI-MS
Formula: C8H16O4
Exact mass: 176.10486
Instrument type: EI-MS
m/z	relative intensity
26	11
27	88
28	79
29	160
31	423
41	24
42	28
43	999
44	107
45	558
46	13
57	11
58	20
59	492
60	20
61	64
72	491
73	193
74	25
75	11
86	18
87	599
88	34
89	36
101	22
103	35
104	12
116	44
117	18
132	20
