Mass spectrum: 1,1,3,3-TETRAMETHYL-1,3-BIS(TRIMETHYLSILYL)DIGERMOXANE; EI-MS
Formula: C10H30Ge2OSi2
Exact mass: 370.02588
Instrument type: EI-MS
m/z	relative intensity
45	26
52	15
58	10
63	17
71	15
73	999
74	93
75	51
76	36
85	93
87	108
88	38
89	137
102	169
103	16
115	108
117	106
118	29
119	150
121	40
145	24
147	40
149	49
150	15
151	52
153	16
158	15
159	270
160	54
161	26
162	16
171	45
173	223
174	40
175	294
176	99
177	354
178	43
179	88
180	17
181	19
185	19
187	38
188	15
189	49
190	15
191	53
192	16
193	41
200	71
201	55
202	166
203	119
204	366
205	157
206	371
207	104
208	243
209	36
229	25
231	31
232	15
233	38
247	16
259	51
260	16
261	65
262	30
263	82
264	24
265	18
273	14
275	31
276	18
277	36
278	17
279	26
303	16
305	35
307	19
308	15
309	17
359	18
361	30
362	19
363	65
364	26
365	73
366	29
367	53
368	19
369	19
374	25
376	66
377	36
378	130
379	51
380	132
381	61
382	100
383	31
384	43
