Mass spectrum: METHACRYLIC ACID 2-ETHYLHEXYL ESTER; EI-MS
Name: 2-ETHYLHEXYL METHACRYLATE
Formula: C12H22O2
Exact mass: 198.16198
Instrument type: EI-MS
m/z	relative intensity
15	4
27	66
28	22
29	128
39	115
40	29
41	631
42	105
43	197
53	15
54	18
55	309
56	204
57	318
58	16
67	14
68	19
69	944
70	999
71	134
82	41
83	216
84	123
85	22
87	111
97	27
98	11
99	43
100	20
111	11
112	198
113	20
