Mass spectrum: LAURIC ACID; EI-MS
Formula: C12H24O2
Exact mass: 200.17763
Instrument type: EI-MS
m/z	relative intensity
26	12
27	282
29	443
30	15
31	27
39	216
40	41
41	824
42	204
43	731
44	30
45	115
53	77
54	67
55	642
56	180
57	539
58	29
59	63
60	951
61	214
62	10
65	13
67	78
68	59
69	349
70	113
71	329
72	21
73	999
74	117
75	10
79	22
81	47
82	49
83	204
84	116
85	332
86	27
87	212
88	36
93	13
95	27
96	44
97	150
98	115
99	88
101	171
102	35
109	13
110	28
111	78
112	47
115	211
116	27
121	11
125	16
129	413
130	41
138	65
139	19
140	86
141	44
143	111
144	14
157	327
158	40
164	15
171	121
172	19
183	50
200	452
201	165
202	20
