Mass spectrum: PARA-METHOXYBENZOIC ACID ISOBUTYL ESTER; EI-MS
Name: ISOBUTYL PARA-METHOXYBENZOATE
Formula: C12H16O3
Exact mass: 208.10994
Instrument type: EI-MS
m/z	relative intensity
27	25
28	22
29	50
39	28
41	59
42	12
43	28
50	19
51	12
56	22
57	21
63	30
64	55
65	14
76	19
77	138
78	14
92	87
93	10
107	82
108	11
135	999
136	96
137	11
152	684
153	92
208	43
209	6
