Mass spectrum: DIISOBUTYL DISULFIDE; EI-MS
Formula: C8H18S2
Exact mass: 178.08499
Instrument type: EI-MS
m/z	relative intensity
27	110
29	273
39	108
40	11
41	384
42	18
43	87
45	61
46	30
47	30
53	15
55	66
56	16
57	999
58	43
59	11
73	13
79	20
87	47
88	19
122	92
178	174
179	15
180	16
