Mass spectrum: 2-(2-HYDROXYPHENYL)-4-PHENYL-5,6-DIHYDROBENZO(H)QUINAZOLINE; EI-MS
Formula: C24H18N2O
Exact mass: 350.14191
Instrument type: EI-MS
m/z	relative intensity
77	28
83	18
85	14
115	3
126	19
127	40
128	29
146	1
147	17
149	13
152	17
153	2
154	10
159	11
159.5	12
160	3
161	17
165	16
165.5	11
174	3
175	66
176	15
202	13
230	3
246	13
255	11
319	10
321	3
322	15
347	33
348	107
349	32
350	999
351	238
352	29
