Mass spectrum: 5-METHYL-3-HEXENYLTRIMETHYLSILANE; EI-MS
Name: 5-METHYL-1-TRIMETHYLSILYL-3-HEXENE
Formula: C10H22Si
Exact mass: 170.14908
Instrument type: EI-MS
m/z	relative intensity
41	29
43	26
44	51
45	42
55	14
56	13
58	12
59	66
72	14
73	999
74	88
75	39
81	21
82	11
85	20
95	17
96	22
99	47
101	23
113	14
117	53
119	53
121	17
127	66
128	11
155	46
170	168
171	28
