Mass spectrum: 1,8-CINEOLE; EI-MS
Name: 1,3,3-TRIMETHYL-2-OXABICYCLO(2.2.2)OCTANE
Formula: C10H18O
Exact mass: 154.13577
Instrument type: EI-MS
m/z	relative intensity
15	51
27	137
29	120
31	15
39	188
40	33
41	312
42	37
43	999
44	18
45	14
51	19
52	10
53	102
54	73
55	256
56	61
57	15
58	115
59	113
65	20
66	12
67	147
68	176
69	285
70	16
71	362
72	17
77	39
79	51
80	13
81	391
82	56
83	143
84	300
85	20
91	15
93	182
94	16
95	104
96	178
97	47
107	18
108	292
109	33
111	254
112	17
121	20
125	32
126	49
136	20
139	185
140	15
154	228
155	24
