Mass spectrum: ETHYL PHENYLACETATE; EI-MS
Formula: C10H12O2
Exact mass: 164.08373
Instrument type: EI-MS
m/z	relative intensity
27	47
29	149
39	62
41	13
50	11
51	26
62	11
63	42
64	12
65	131
89	38
90	25
91	999
92	121
105	15
119	17
164	162
165	15
