Mass spectrum: 1,4-DIETHOXYBENZENE; EI-MS
Formula: C10H14O2
Exact mass: 166.09938
Instrument type: EI-MS
m/z	relative intensity
27	77
28	15
29	106
38	1
39	30
45	10
50	8
51	1
52	11
53	48
54	30
55	2
63	30
64	25
65	40
77	1
81	129
82	35
109	626
110	999
111	66
137	95
138	161
139	1
166	629
167	56
