Mass spectrum: 2-(2-AMINOETHYLAMINO)ETHANOL; EI-MS
Formula: C4H12N2O
Exact mass: 104.09496
Instrument type: EI-MS
m/z	relative intensity
15	38
27	50
28	48
29	83
30	677
31	97
41	35
42	105
43	104
44	646
45	155
56	627
57	49
73	83
74	999
75	51
88	63
105	119
