Mass spectrum: PENTYL ACETATE; EI-MS
Formula: C7H14O2
Exact mass: 130.09938
Instrument type: EI-MS
m/z	relative intensity
15	46
27	89
28	24
29	89
31	11
39	63
40	11
41	139
42	230
43	999
44	24
55	193
56	12
57	12
58	34
61	223
69	67
70	387
71	24
73	114
87	12
