Mass spectrum: ETHYL 3-(1-PHENETHYL)HEPTANOATE; EI-MS
Formula: C17H26O2
Exact mass: 262.19328
Instrument type: EI-MS
m/z	relative intensity
55	21
69	56
79	13
83	9
85	33
88	47
91	101
104	7
105	999
106	159
111	40
118	13
119	15
129	51
130	26
131	18
157	21
159	42
174	612
176	21
204	16
216	42
217	95
263	79
