Mass spectrum: ACETALDEHYDE DIMETHYL ACETAL; EI-MS
Name: 1,1-DIMETHOXYETHANE
Formula: C4H10O2
Exact mass: 90.06808
Instrument type: EI-MS
m/z	relative intensity
14	365
15	890
16	73
17	7
18	9
25	8
26	201
28	118
29	999
30	577
31	570
32	10
33	14
39	14
41	31
42	113
43	387
44	16
45	26
47	68
58	13
59	302
60	22
75	80
89	3
