Mass spectrum: ISOPENTYL BUTYRATE; EI-MS
Name: ISOAMYL BUTYRATE
Formula: C9H18O2
Exact mass: 158.13068
Instrument type: EI-MS
m/z	relative intensity
15	14
26	12
27	261
28	48
29	133
31	12
39	145
40	21
41	362
42	200
43	930
44	32
45	25
53	17
54	11
55	401
56	22
57	17
60	28
69	63
70	999
71	998
72	37
73	21
85	12
88	21
89	180
101	21
115	58
