Mass spectrum: CARBON-DIOXIDE; EI-MS
Formula: CO2
Exact mass: 43.98983
Instrument type: EI-MS
m/z	relative intensity
12	54
16	93
22	18
28	127
44	999
45	13
