Mass spectrum: 2,3-HEXANEDIONE; EI-MS
Formula: C6H10O2
Exact mass: 114.06808
Instrument type: EI-MS
m/z	relative intensity
14	13
15	83
26	18
27	208
29	17
38	11
39	89
41	246
42	75
43	999
44	34
55	11
71	252
72	16
114	59
