Mass spectrum: HEXAMETHYLDISILANE; EI-MS
Formula: C6H18Si2
Exact mass: 146.0947
Instrument type: EI-MS
m/z	relative intensity
28	34
29	15
31	8
32	1
43	59
44	19
45	108
46	1
53	6
55	11
57	8
58	2
59	34
69	8
72	27
73	999
74	82
75	38
85	6
99	1
115	16
129	6
131	230
132	4
133	20
146	117
147	20
148	10
