Mass spectrum: N-ACETYLMETHIONINE METHYL ESTER; EI-MS
Formula: C8H15NO3S
Exact mass: 205.07726
Instrument type: EI-MS
m/z	relative intensity
28	13
43	37
47	12
48	19
56	81
57	27
60	18
61	56
71	17
74	19
75	48
83	12
88	64
89	196
98	54
99	494
100	29
102	110
104	115
112	106
113	10
114	49
115	16
116	42
125	27
126	18
131	999
132	60
144	180
145	14
146	52
158	55
162	52
163	12
173	17
205	73
206	16
