Mass spectrum: 3'-AMINOFLAVANONE; EI-MS
Name: 2-(3-AMINOPHENYL)CHROMAN-4-ONE
Formula: C15H13NO2
Exact mass: 239.09463
Instrument type: EI-MS
m/z	relative intensity
28	401
32	173
38	31
39	11
50	24
51	43
52	27
63	9
64	80
65	141
66	30
77	4
78	38
89	26
90	22
91	13
92	159
93	131
98.5	30
104	2
106	43
117	61
118	197
119	999
120	159
121	93
147	100
152	2
210	29
220	22
221	77
222	3
223	44
238	136
239	537
240	87
