Mass spectrum: N-ALLYL-N-METHYLANILINE; EI-MS
Formula: C10H13N
Exact mass: 147.1048
Instrument type: EI-MS
m/z	relative intensity
42	102
50	21
51	98
52	18
56	15
63	19
64	13
65	30
66	16
68	9
70	32
72	9
73	31
74	18
75	9
76	11
77	298
78	53
79	51
91	97
92	18
93	9
103	25
104	151
105	145
106	82
107	13
115	10
117	39
118	45
119	15
120	999
121	94
129	17
130	79
131	74
132	112
133	12
144	41
145	13
146	283
147	733
148	87
