Mass spectrum: 2-PENTANOL; EI-MS
Formula: C5H12O
Exact mass: 88.08882
Instrument type: EI-MS
m/z	relative intensity
15	16
19	14
27	91
29	59
31	44
39	55
41	65
42	27
43	151
44	82
45	999
46	19
55	200
57	13
70	17
73	93
