Mass spectrum: 2-HEXYLFURAN; EI-MS
Formula: C10H16O
Exact mass: 152.12012
Instrument type: EI-MS
m/z	relative intensity
29	20
39	10
41	20
42	10
43	190
53	122
54	58
55	52
66	20
67	180
68	212
69	60
70	30
71	20
78	10
79	61
80	50
81	999
82	679
83	120
84	10
93	29
94	59
95	488
96	287
97	18
108	163
109	105
110	18
123	226
124	25
152	417
153	78
