Mass spectrum: PROPANAL BENZYL ISOPENTYL ACETAL; EI-MS
Name: PROPANAL BENZYL ISOAMYL ACETAL
Formula: C15H24O2
Exact mass: 236.17763
Instrument type: EI-MS
m/z	relative intensity
27	31
29	41
39	36
41	6
42	11
43	132
51	12
55	2
57	14
65	61
71	119
77	2
79	10
89	11
90	15
91	999
92	108
148	33
149	18
207	36
