Mass spectrum: 1-NAPHTHYLAMINE; EI-MS
Name: 1-AMINONAPHTHALENE
Formula: C10H9N
Exact mass: 143.0735
Instrument type: EI-MS
m/z	relative intensity
18	18
28	12
39	23
50	10
51	15
575	16
585	34
62	11
63	34
65	18
705	42
715	75
77	11
89	39
107	13
108	13
113	13
114	24
115	357
116	196
117	31
120	20
126	11
137	10
140	18
141	11
142	50
143	999
144	107
