Mass spectrum: (2S)-N-TERT-BUTOXYCARBONYL-2-HYDROXYMETHYLPYRROLIDINE; EI-MS
Name: (2S)-N-TERT-BUTOXYCARBONYLPROLINOL
Formula: C10H19NO3
Exact mass: 201.13649
Instrument type: EI-MS
m/z	relative intensity
18	60
41	56
56	162
57	137
58	24
70	999
71	28
114	277
115	108
129	64
146	17
170	380
171	82
201	5
