Mass spectrum: 3-ETHYL-5-METHYLPYRIDINE; EI-MS
Formula: C8H11N
Exact mass: 121.08915
Instrument type: EI-MS
m/z	relative intensity
29	20
39	290
40	11
41	68
51	130
52	25
53	110
63	68
64	13
65	92
77	220
78	18
79	175
80	11
91	57
92	105
105	23
106	999
107	100
120	561
121	831
122	74
