Mass spectrum: 2-METHYL-3,7DIPHENYLINDOLE; EI-MS
Formula: C21H17N
Exact mass: 283.1361
Instrument type: EI-MS
m/z	relative intensity
133.5	12
134	11
141.5	25
165	1
178	12
203	11
204	59
205	2
206	78
207	17
239	41
240	2
241	28
252	20
253	18
254	2
255	14
265	34
266	34
267	6
268	28
278	48
279	28
280	10
281	59
282	311
283	999
284	31
285	58
