Mass spectrum: 2,4-DIMETHYLBENZENAMINE; EI-MS
Name: 2,4-XYLIDINE
Formula: C8H11N
Exact mass: 121.08915
Instrument type: EI-MS
m/z	relative intensity
27	40
28	43
30	18
38	16
39	81
40	12
41	34
42	31
46.5	18
50	25
51	60
52	50
53	61
54	26
58.5	37
59.5	33
60	11
60.5	38
62	13
63	31
64	52
65	21
66	11
76	10
77	147
78	51
79	40
80	27
89	12
91	94
92	24
93	45
94	17
102	10
103	38
104	35
105	21
106	552
107	45
117	13
118	46
119	43
120	784
121	999
122	90
