Mass spectrum: DIMETHYLGLYOXIME; EI-MS
Formula: C4H8N2O2
Exact mass: 116.05858
Instrument type: EI-MS
m/z	relative intensity
14	24
15	382
17	13
18	28
26	56
27	213
28	288
29	53
30	145
31	281
37	21
38	55
39	137
40	273
41	340
42	999
43	115
44	40
50	31
51	56
52	81
53	58
54	130
55	60
56	29
57	125
58	499
59	15
66	44
67	70
68	218
69	94
81	52
82	35
84	73
98	42
99	348
100	19
101	13
116	511
117	115
