Mass spectrum: BUTYRIC ACID CYCLOHEXYL ESTER; EI-MS
Formula: C10H18O2
Exact mass: 170.13068
Instrument type: EI-MS
m/z	relative intensity
27	12
28	14
29	12
41	46
42	12
43	339
44	12
54	112
55	151
56	12
57	20
58	22
60	34
67	466
68	26
70	34
71	825
72	38
73	24
81	80
82	999
83	329
84	22
86	56
87	14
88	120
89	647
90	34
99	64
100	10
127	50
