Mass spectrum: ORTHO-BROMOTOLUENE; EI-MS
Name: 2-BROMOTOLUENE
Formula: C7H7Br
Exact mass: 169.97311
Instrument type: EI-MS
m/z	relative intensity
43	17
44	13
45	51
50	45
51	50
52	11
61	20
62	54
63	130
64	38
65	181
74	16
75	15
85	29
86	28
89	179
90	200
91	999
92	78
169	47
170	533
171	86
172	524
173	41
