Mass spectrum: HEPTANE-4,4-DICARBOXYLIC ACID DIMETHYL ESTER; EI-MS
Formula: C11H20O4
Exact mass: 216.13616
Instrument type: EI-MS
m/z	relative intensity
44	98
53	119
55	817
56	10
59	464
67	139
69	237
73	44
82	72
83	134
85	70
87	9
95	173
97	612
109	83
110	39
113	843
114	338
125	79
127	29
141	216
142	248
143	321
145	999
146	220
155	117
156	162
157	42
174	509
185	175
