Mass spectrum: 4-(4'-HYDROXYPHENYL)BENZOIC ACID; EI-MS
Formula: C13H10O3
Exact mass: 214.06299
Instrument type: EI-MS
m/z	relative intensity
115	30
141	55
168	29
169	55
170	10
185	13
186	15
197	246
198	40
213	12
214	999
215	157
216	18
