Mass spectrum: 1-METHYL-1-TRIMETHYLSILYL-2,3-BENZO-1-SILA-2-CYCLOPENTENE; EI-MS
Name: 1-METHYL-1-TRIMETHYLSILYL-1-SILAINDAN
Formula: C12H20Si2
Exact mass: 220.11035
Instrument type: EI-MS
m/z	relative intensity
43	72
45	64
53	25
59	38
73	209
74	18
75	13
93	16
103	11
105	68
106	11
117	14
119	45
121	35
130	13
131	54
132	23
143	32
145	380
146	107
147	999
148	152
149	48
160	40
161	18
177	48
191	11
205	61
206	15
220	231
221	56
222	23
