Mass spectrum: CIS-12-OCTADECENOIC ACID METHYL ESTER; EI-MS
Formula: C19H36O2
Exact mass: 296.27153
Instrument type: EI-MS
m/z	relative intensity
40	193
41	178
42	68
43	355
44	64
45	168
54	35
55	951
56	398
57	453
58	19
59	86
60	83
67	49
68	207
69	999
70	254
71	86
73	106
74	998
75	84
81	292
82	287
83	820
84	822
85	99
87	794
89	56
93	57
95	454
96	629
97	728
98	693
99	30
101	79
109	280
110	384
111	257
113	18
115	79
119	42
123	102
124	111
125	110
129	105
133	43
135	63
137	41
138	124
139	117
141	91
150	39
152	175
153	112
161	96
166	55
167	40
180	190
181	62
183	53
220	73
221	29
222	229
223	61
264	498
265	370
296	74
297	13
