Mass spectrum: AZOBENZENE; EI-MS
Formula: C12H10N2
Exact mass: 182.0844
Instrument type: EI-MS
m/z	relative intensity
50	27
51	213
52	24
63	32
64	29
77	999
78	60
105	186
115	22
128	15
149	11
152	68
153	54
154	15
182	287
183	45
