Mass spectrum: ISOPROPYL SALICYLATE; EI-MS
Formula: C10H12O3
Exact mass: 180.07864
Instrument type: EI-MS
m/z	relative intensity
27	64
29	14
38	22
39	162
41	80
43	83
53	24
62	11
63	58
64	71
65	140
66	12
81	13
92	281
93	66
120	999
121	283
122	21
138	284
139	16
180	141
181	13
