Mass spectrum: 8,8-ETHYLENEDIOXY-4,4-DIMETHYL-1ALPHA,5ALPHA-BICYCLO(3.3.0)OCTANE-2ALPHA-CARBOXYLICACID; EI-MS
Formula: C13H20O4
Exact mass: 240.13616
Instrument type: EI-MS
m/z	relative intensity
15	395
17	36
18	342
28	999
32	73
40	25
42	32
43	24
55	68
56	25
57	24
58	20
73	63
81	25
86	304
87	10
91	21
93	43
99	966
100	23
107	30
