Mass spectrum: ACETIC ACID (3-METHOXY-3-METHYL)BUTYL ESTER; EI-MS
Formula: C8H16O3
Exact mass: 160.10994
Instrument type: EI-MS
m/z	relative intensity
15	70
27	47
28	17
29	65
31	17
33	14
39	56
40	13
41	194
42	57
43	522
44	15
45	60
53	20
55	196
56	26
57	25
67	19
68	20
69	158
70	20
71	16
72	12
73	999
74	44
85	314
86	22
