Mass spectrum: P-CRESOL; EI-MS
Formula: C7H8O
Exact mass: 108.05751
Instrument type: EI-MS
m/z	relative intensity
26	21
27	94
29	19
37	11
38	26
39	114
40	13
43	10
49	10
50	78
51	135
52	73
53	101
54	28
55	26
61	11
62	21
63	55
64	11
65	20
66	10
74	12
77	235
78	72
79	183
80	76
81	18
89	20
90	77
91	43
106	11
107	951
108	999
109	75
