Mass spectrum: 2-ACETYL-10-(3-DIMETHYLAMINOPROPYL)-PHENOTHIAZINE; EI-MS
Formula: C19H22N2OS
Exact mass: 326.14528
Instrument type: EI-MS
m/z	relative intensity
41	49
42	129
43	109
44	8
58	999
59	59
85	69
86	16
179	19
196	69
197	169
198	4
210	19
211	9
212	9
222	4
223	19
224	19
225	29
226	1
240	59
241	29
254	19
255	2
266	9
267	9
268	9
280	3
326	49
