Mass spectrum: 3-BROMO-4-HYDROXYBENZALDEHYDE; EI-MS
Formula: C7H5BrO2
Exact mass: 199.94729
Instrument type: EI-MS
m/z	relative intensity
40	39
41	42
42	42
43	3
44	16
45	24
46	36
48	3
49	120
50	220
51	105
52	3
53	470
54	36
55	32
56	1
57	17
60	80
61	360
62	60
63	999
64	360
65	360
66	11
67	28
68	14
69	17
71.5	2
72	17
73	78
74	18
76	2
77	95
78	12
79	100
80	15
81	100
82	140
83	14
84	1
85	17
86	45
87	36
89	1
90	47
91	140
92	330
93	8
94	17
95	12
104	17
105	1
106	14
116	19
117	62
118	2
119	80
120	42
121	53
122	4
131	14
133	14
141	19
142	2
143	130
144	24
145	120
146	1
149	24
169	12
170	22
171	12
172	61
173	120
174	28
199	28
200	320
201	260
202	300
203	39
