Mass spectrum: 3-METHYL-5-KETOHEXANAL; EI-MS
Name: 3-METHYL-5-OXOHEXANAL
Formula: C7H12O2
Exact mass: 128.08373
Instrument type: EI-MS
m/z	relative intensity
31	11
32	91
40	22
41	52
43	947
44	43
55	23
57	88
58	889
59	104
67	87
68	999
69	220
70	110
71	311
72	113
82	19
84	37
85	437
86	209
87	11
95	168
96	13
99	13
100	390
101	34
109	37
110	453
111	60
113	70
128	16
129	47
