Mass spectrum: 11-HYDROXY-11-PHENYLDIBENZO(C,H)BICYCLO(4.4.1)UNDECA-3,8-DIENE; EI-MS
Formula: C25H24O
Exact mass: 340.18272
Instrument type: EI-MS
m/z	relative intensity
43	75
65	39
77	257
78	98
79	77
91	241
103	117
104	502
105	449
106	37
107	67
115	229
116	108
117	184
118	40
121	40
127	46
128	149
129	220
130	43
131	45
141	67
179	53
192	40
193	42
194	67
202	70
203	64
204	69
205	134
206	46
207	65
215	65
216	51
217	999
218	439
219	77
220	25
221	22
229	40
230	55
231	325
232	66
233	19
322	470
323	131
324	32
340	431
341	115
342	17
