Mass spectrum: TETRAHYDROFURAN; EI-MS
Formula: C4H8O
Exact mass: 72.05751
Instrument type: EI-MS
m/z	relative intensity
27	87
28	13
29	37
31	2
39	30
40	66
41	337
42	999
43	163
44	33
71	299
72	33
73	17
