Mass spectrum: 2-BROMOETHOXYBENZENE; EI-MS
Name: 2-BROMOETHYL PHENYL ETHER
Formula: C8H9BrO
Exact mass: 199.98368
Instrument type: EI-MS
m/z	relative intensity
26	20
27	374
28	12
37	11
38	45
39	268
40	34
43	12
50	45
51	132
55	27
62	18
63	68
64	39
65	328
66	147
74	11
77	315
78	25
79	61
91	35
93	90
94	999
95	69
107	955
108	28
109	843
110	18
120	35
121	124
122	10
138	16
141	27
200	608
201	58
202	592
203	56
