Mass spectrum: 2-OXOPENTANOIC ACID TRIMETHYLSILYL ESTER; EI-MS
Formula: C8H16O3Si
Exact mass: 188.08687
Instrument type: EI-MS
m/z	relative intensity
43	95
44	22
45	89
47	3
55	16
58	42
59	16
61	1
71	39
72	19
73	999
74	9
75	252
76	28
77	33
87	3
101	78
117	19
129	112
130	1
131	28
144	25
147	11
173	2
188	16
