Mass spectrum: CITRIC ACID TRIETHYL ESTER; EI-MS
Name: TRIETHYL CITRATE
Formula: C12H20O7
Exact mass: 276.1209
Instrument type: EI-MS
m/z	relative intensity
43	18
87	19
88	13
111	45
115	247
116	15
129	39
130	25
139	20
157	999
158	83
159	11
185	13
203	228
204	23
213	20
276	3
