Mass spectrum: BICYCLO(6.1.0)NONANE; EI-MS
Formula: C9H16
Exact mass: 124.1252
Instrument type: EI-MS
m/z	relative intensity
41	726
42	65
51	33
52	22
53	149
54	899
55	688
56	87
57	35
65	35
66	91
67	999
68	453
69	148
70	40
77	36
79	76
80	37
81	694
82	520
83	127
95	371
96	699
97	55
109	48
124	162
125	16
