Mass spectrum: 2-METHYL-8-METHOXY-(6,7)-BENZOCHROMONE; EI-MS
Formula: C15H12O3
Exact mass: 240.07864
Instrument type: EI-MS
m/z	relative intensity
39	60
44	80
51	60
63	60
75	120
100	80
101	310
102	50
113	60
120	60
157	570
158	270
185	570
186	80
232	50
225	730
226	120
240	999
241	160
