Mass spectrum: N-PROPYLHYDRAZONE ACETONE; EI-MS
Name: ACETONE PROPYLHYDRAZONE
Formula: C6H14N2
Exact mass: 114.1157
Instrument type: EI-MS
m/z	relative intensity
27	99
28	155
29	80
30	13
31	17
32	11
39	71
40	3
41	127
42	120
43	56
44	2
54	30
55	21
56	999
57	7
58	39
71	21
72	56
83	1
85	915
86	56
99	15
113	1
114	268
115	34
