Mass spectrum: ETHYL 3,5-DIMETHYL-4-METHYLSULFONYLBENZOATE; EI-MS
Formula: C12H16O4S
Exact mass: 256.07693
Instrument type: EI-MS
m/z	relative intensity
26	11
27	88
29	148
31	1
39	68
40	16
41	19
43	8
44	26
45	38
50	22
51	9
52	33
53	59
55	16
62	2
63	90
64	30
65	76
66	1
67	11
74	11
75	22
76	3
77	300
78	130
79	56
81	1
89	37
90	11
91	155
92	3
93	38
97	11
98	12
102	7
103	327
104	210
105	76
109	2
117	24
119	38
120	45
121	9
122	11
123	14
131	132
132	19
133	121
134	18
135	14
136	1
137	28
147	52
148	85
149	31
150	39
151	29
163	21
165	19
166	24
176	88
177	394
178	5
179	13
182	20
193	414
194	5
195	29
197	17
211	452
212	7
213	38
223	18
227	28
228	16
229	21
239	26
241	119
242	2
256	999
257	152
258	65
