Mass spectrum: 2,4-DICHLOROBENZOIC ACID METHYL ESTER; EI-MS
Formula: C8H6Cl2O2
Exact mass: 203.97448
Instrument type: EI-MS
m/z	relative intensity
49	45
50	190
51	45
63	5
73	99
74	580
75	473
77	5
84	137
85	61
86	45
109	59
110	251
111	236
112	61
145	92
146	68
147	610
149	68
173	65
174	305
175	404
176	175
177	41
186	83
203	61
204	999
205	11
206	603
207	53
208	91
