Mass spectrum: ALLYL HEPTANOATE; EI-MS
Name: 2-PROPENYL HEPTANOATE
Formula: C10H18O2
Exact mass: 170.13068
Instrument type: EI-MS
m/z	relative intensity
15	10
26	18
27	202
29	205
31	13
38	13
39	272
40	25
41	881
42	106
43	999
44	26
45	28
53	22
54	81
55	330
56	115
57	192
58	77
59	10
60	11
67	20
68	21
69	206
70	15
71	12
73	13
81	15
82	29
83	158
84	34
85	257
86	16
87	21
95	35
99	19
100	278
101	22
111	33
113	725
114	56
127	30
141	12
