Mass spectrum: 2-BENZYLOXYETHYL ALCOHOL; EI-MS
Formula: C9H12O2
Exact mass: 152.08373
Instrument type: EI-MS
m/z	relative intensity
41	24
43	59
45	31
50	33
51	79
63	57
65	195
77	89
79	90
89	47
90	29
91	999
92	237
93	25
105	34
107	182
108	32
152	154
153	30
