Mass spectrum: 1-METHYL-1-PHENYLHYDRAZINE; EI-MS
Formula: C7H10N2
Exact mass: 122.0844
Instrument type: EI-MS
m/z	relative intensity
27	42
29	132
30	21
31	1
37	12
38	33
39	98
40	1
41	10
42	12
43	56
44	1
45	28
50	79
51	210
52	7
52.5	10
53	35
53.5	12
54	1
61	51
62	12
63	54
64	3
65	61
66	16
73	12
74	2
75	23
76	19
77	675
78	13
79	165
80	20
90	9
91	4
92	58
93	56
94	21
104	10
105	98
106	74
107	465
108	4
121	88
122	999
123	100
