Mass spectrum: 2-METHYL-2-PROPYLAMINE; EI-MS
Name: TERT-BUTYLAMINE
Formula: C4H11N
Exact mass: 73.08915
Instrument type: EI-MS
m/z	relative intensity
15	53
18	98
27	42
28	6
29	90
39	56
40	15
41	6
42	186
43	126
44	29
55	2
56	24
57	58
58	999
59	48
