Mass spectrum: TRANS-L-CARVYL ACETATE; EI-MS
Formula: C12H18O2
Exact mass: 194.13068
Instrument type: EI-MS
m/z	relative intensity
15	37
27	116
29	77
39	234
40	37
41	363
42	28
43	999
44	23
45	14
50	10
51	58
52	29
53	170
54	32
55	238
56	34
61	11
63	20
65	78
66	36
67	108
68	48
69	58
71	16
77	231
78	60
79	232
80	122
81	96
82	62
83	81
84	905
85	43
89	10
91	487
92	325
93	360
94	60
95	57
96	57
97	34
103	29
104	14
105	255
106	134
107	173
108	164
109	879
110	77
111	15
115	26
117	49
118	17
119	909
120	85
121	12
123	39
124	27
126	28
133	40
134	395
135	69
137	68
150	19
151	112
152	905
153	117
194	16
