Mass spectrum: (2E,6Z)-2,6-NONADIENOL; EI-MS
Formula: C9H16O
Exact mass: 140.12012
Instrument type: EI-MS
m/z	relative intensity
39	29
40	9
41	999
42	121
43	485
53	91
54	456
55	279
56	32
57	174
66	32
67	309
68	647
69	706
70	179
71	62
77	18
78	38
79	229
80	106
81	94
82	29
83	29
84	9
85	29
91	12
93	224
94	82
95	9
96	12
97	44
107	59
109	141
111	18
122	53
