Mass spectrum: PIVALIC ACID; EI-MS
Formula: C5H10O2
Exact mass: 102.06808
Instrument type: EI-MS
m/z	relative intensity
15	20
27	80
28	42
29	264
31	17
32	10
38	13
39	107
40	14
41	334
42	23
43	29
45	36
55	27
56	68
57	999
58	45
59	55
69	11
87	51
102	36
