Mass spectrum: 8,10,10,-TRIMETHYLTRICYCLO(5.3.1.0(3,8))UNDECANE-2,6-DIONE; EI-MS
Formula: C14H20O2
Exact mass: 220.14633
Instrument type: EI-MS
m/z	relative intensity
39	97
41	221
43	84
53	53
55	308
67	75
69	83
77	1
79	97
80	59
81	113
82	66
83	90
91	83
93	105
94	89
96	999
105	82
107	195
109	346
121	128
122	127
123	126
124	148
125	92
133	76
135	71
136	88
137	64
138	54
140	94
149	16
152	127
164	104
177	129
192	95
205	143
220	587
