Mass spectrum: PROPYL PARA HYDROXY BENZOATE; EI-MS
Formula: C10H12O3
Exact mass: 180.07864
Instrument type: EI-MS
m/z	relative intensity
27	17
29	11
39	71
41	17
43	11
53	11
63	18
64	15
65	126
67	11
92	10
93	136
94	15
120	28
121	999
122	84
138	533
139	51
180	34
181	7
