Mass spectrum: ETHYL BROMIDE; EI-MS
Formula: C2H5Br
Exact mass: 107.95746
Instrument type: EI-MS
m/z	relative intensity
14	17
15	16
25	38
26	242
27	806
28	207
29	999
30	21
53	11
54	10
79	38
80	16
81	37
82	17
93	43
95	34
107	14
108	869
109	29
110	847
111	20
