Mass spectrum: ORTHO-FLUOROBENZOIC ACID; EI-MS
Formula: C7H5FO2
Exact mass: 140.02736
Instrument type: EI-MS
m/z	relative intensity
27	11
31	14
37	22
38	20
39	34
45	30
50	116
51	48
56	20
57	28
61	14
61.5	22
62	16
63	28
64	22
65	13
68	42
69	55
70	48
74	55
75	210
76	61
92	34
93	20
94	37
95	466
96	57
112	14
120	21
123	999
124	75
140	690
141	70
