Mass spectrum: THONZYLAMINE; EI-MS
Formula: C16H22N4O
Exact mass: 286.17936
Instrument type: EI-MS
m/z	relative intensity
56	49
57	34
58	679
59	3
71	134
72	139
77	89
78	13
79	69
80	69
89	24
90	3
91	79
92	19
93	19
100	4
108	49
120	49
121	999
122	9
124	39
184	19
198	24
200	2
215	114
216	84
217	39
228	4
286	89
287	21
