Mass spectrum: BUTYL FORMATE; EI-MS
Name: FORMIC ACID BUTYL ESTER
Formula: C5H10O2
Exact mass: 102.06808
Instrument type: EI-MS
m/z	relative intensity
15	19
18	31
19	11
26	39
27	284
28	140
29	323
30	14
31	514
32	11
38	15
39	143
40	31
41	557
42	85
43	184
44	30
45	65
47	32
53	11
55	106
56	999
57	80
59	18
60	25
73	65
