Mass spectrum: ACETIC ACID ALLYL ESTER; EI-MS
Name: ALLYL ACETATE
Formula: C5H8O2
Exact mass: 100.05243
Instrument type: EI-MS
m/z	relative intensity
15	44
26	11
27	28
28	19
29	28
31	10
38	12
39	96
40	24
41	109
42	26
43	999
44	25
57	76
58	108
61	24
