Mass spectrum: 1-METHYLBICYCLO(4.4.0)DECANE(CIS); EI-MS
Name: METHYLDECALIN(CIS)
Formula: C11H20
Exact mass: 152.1565
Instrument type: EI-MS
m/z	relative intensity
39	71
40	17
41	197
42	25
43	13
51	16
52	10
53	62
54	45
55	214
56	22
65	23
66	33
67	359
68	121
69	116
77	30
79	58
80	21
81	481
82	238
83	98
91	15
93	26
94	27
95	685
96	288
97	31
108	13
109	243
110	136
111	17
123	46
124	17
136	95
137	999
138	111
152	202
153	24
