Mass spectrum: BENZALDEHYDE; EI-MS
Formula: C7H6O
Exact mass: 106.04186
Instrument type: EI-MS
m/z	relative intensity
49	41
50	198
51	411
52	185
53	28
56	10
61	20
62	26
63	38
73	30
74	118
75	62
76	72
77	999
78	133
79	15
105	871
106	946
107	137
