Mass spectrum: 2,2,5,5-TETRAMETHYL-2,5-DISILAPYRROLIDINE; EI-MS
Formula: C6H17NSi2
Exact mass: 159.08995
Instrument type: EI-MS
m/z	relative intensity
45	36
51	26
52	29
57	35
59	70
64	73
66	32
70	30
72	24
73	131
74	23
86	25
100	98
102	24
116	268
117	131
118	42
130	36
132	22
144	999
145	258
146	96
159	63
160	27
