Mass spectrum: CEDROL; EI-MS
Name: OCTAHYDRO-3,6,8,8-TETRAMETHYL-1H,3A,7-METHANOAZULEN-6-OL
Formula: C15H26O
Exact mass: 222.19837
Instrument type: EI-MS
m/z	relative intensity
40	298
67	269
69	307
81	444
82	575
93	185
95	999
105	558
109	362
119	240
121	157
133	91
135	243
150	530
151	553
161	85
165	60
207	66
