Mass spectrum: N-PROPYLACETAMIDE; EI-MS
Name: ACETYLAMINOPROPANE
Formula: C5H11NO
Exact mass: 101.08406
Instrument type: EI-MS
m/z	relative intensity
43	80
44	172
58	35
59	11
60	76
72	303
73	92
86	377
87	18
101	518
102	49
