Mass spectrum: AZULENE; EI-MS
Formula: C10H8
Exact mass: 128.0626
Instrument type: EI-MS
m/z	relative intensity
43	24
49	30
50	129
51	189
52	28
61	26
62	70
63	137
64	93
73	23
74	75
75	80
76	86
77	80
78	54
86	17
87	18
98	17
99	11
100	17
101	85
102	128
103	13
125	26
126	136
127	416
128	999
129	121
