Mass spectrum: VALERALDEHYDE DIETHYL ACETAL; EI-MS
Formula: C9H20O2
Exact mass: 160.14633
Instrument type: EI-MS
m/z	relative intensity
15	20
19	17
26	21
27	274
29	488
30	19
31	141
39	79
41	275
42	27
43	113
44	100
45	138
46	12
47	743
53	11
55	33
57	382
58	64
59	54
60	10
67	11
69	676
70	34
71	13
72	24
75	504
76	13
85	166
86	13
87	114
88	19
103	999
104	56
114	37
115	618
116	39
