Mass spectrum: 1-METHYL-4-(1-METHYLENE-5-METHYL-4-HEXENYL)CYCLOHEXENE; EI-MS
Formula: C15H24
Exact mass: 204.1878
Instrument type: EI-MS
m/z	relative intensity
41	654
53	131
55	171
67	336
68	126
69	963
77	171
79	336
80	131
81	188
91	247
92	221
93	999
94	452
95	192
105	243
107	307
108	141
109	441
119	353
120	138
121	258
133	140
134	158
135	182
161	342
204	768
205	155
