Mass spectrum: UNDECANE; EI-MS
Formula: C11H24
Exact mass: 156.1878
Instrument type: EI-MS
m/z	relative intensity
27	205
28	38
29	338
39	94
40	13
41	460
42	133
43	999
44	32
53	22
54	15
55	159
56	155
57	943
58	44
69	30
70	102
71	416
72	15
83	11
84	56
85	201
98	35
99	32
112	20
113	23
127	16
156	34
