Mass spectrum: 4-PHENYLAMINO-2(5H)-FURANONE; EI-MS
Formula: C10H9NO2
Exact mass: 175.06333
Instrument type: EI-MS
m/z	relative intensity
55	15
56	8
57	8
61	5
68	14
69	6
70	5
71	8
77	6
78	7
81	6
82	7
83	8
84	9
85	10
90	14
91	24
92	5
93	10
94	4
95	8
96	4
97	6
98	4
99	5
104	10
106	7
107	15
109	6
111	5
112	8
113	65
114	5
116	9
117	79
118	168
119	24
120	4
123	5
124	4
125	5
129	6
130	67
131	13
132	4
133	5
136	6
137	6
144	63
145	9
146	57
147	26
148	4
149	12
153	4
158	5
167	6
174	64
175	999
176	120
177	12
