Mass spectrum: N-OCTYL-EPSILON-CAPROLACTAM; EI-MS
Formula: C14H27NO
Exact mass: 225.20926
Instrument type: EI-MS
m/z	relative intensity
26	4
27	74
28	66
29	12
30	106
31	3
32	4
38	0
39	54
40	12
41	312
42	15
43	162
44	192
45	6
46	0
51	3
52	1
53	17
54	2
55	200
56	80
57	74
58	2
59	4
60	6
65	4
66	0
67	46
68	20
69	140
70	6
71	28
72	15
73	19
74	0
79	7
80	4
81	17
82	1
83	13
84	52
85	242
86	3
87	12
93	1
94	4
95	1
96	21
97	21
98	518
99	8
100	15
101	6
105	1
106	0
107	1
108	4
109	3
110	1
111	5
112	52
113	104
114	12
115	12
116	2
117	1
124	0
125	4
126	999
127	440
128	5
129	6
130	3
131	1
132	0
133	1
138	5
139	2
140	23
141	62
142	23
143	3
144	0
152	3
153	1
154	118
155	9
156	20
157	2
158	1
166	0
167	1
168	76
169	120
170	2
171	14
172	2
180	1
181	0
182	138
183	25
184	10
185	0
191	1
192	1
193	1
194	0
195	1
196	54
197	12
198	0
208	3
209	1
210	20
211	0
212	1
223	3
224	14
225	28
226	52
227	7
