Mass spectrum: 2-(TRIMETHYLSILYLMETHYL)BENZALDEHYDE; EI-MS
Formula: C11H16OSi
Exact mass: 192.09704
Instrument type: EI-MS
m/z	relative intensity
42	53
43	89
44	106
58	33
60	58
65	24
73	999
74	88
75	102
77	33
81	49
91	29
103	24
115	26
117	23
118	62
119	56
131	29
133	42
149	31
159	50
161	28
177	456
178	75
179	23
191	23
192	152
193	27
