Mass spectrum: (1R,4AS,5S,8AS)-(-)-5BETA,8ABETA-DIMETHYL-1BETA,2-DIFORMYL-5ALPHA-(4-METHYL-3-PENTENYL)-1,4,4A,5,6,7,8,8AALPHA-OCTAHYDRONAPHTHALENE; EI-MS
Name: SACCULATAL
Formula: C20H30O2
Exact mass: 302.22458
Instrument type: EI-MS
m/z	relative intensity
31	336
39	91
41	995
43	386
45	165
53	135
55	545
57	74
59	229
61	50
65	74
67	268
68	54
69	999
70	116
71	73
73	52
74	159
77	174
79	242
81	348
82	99
83	178
91	470
92	69
93	288
94	66
95	305
96	101
97	129
99	114
105	396
106	80
107	272
108	95
109	350
110	86
119	100
120	55
121	53
122	144
123	145
131	133
133	233
134	272
135	269
136	83
137	105
145	122
147	201
148	95
149	132
150	53
159	89
161	171
162	55
163	128
173	97
174	173
175	117
176	71
177	172
189	204
190	140
191	131
192	125
203	69
231	494
232	92
259	913
260	180
274	5
275	104
