Mass spectrum: ALPHA-(4-DIMETHYLAMINOPHENYL)-OMEGA-(9-PHENANTHRYL)OCTANE; EI-MS
Name: 1-(4-DIMETHYLAMINOPHENYL)-8-(9-PHENANTHRYL)OCTANE
Formula: C30H35N
Exact mass: 409.27695
Instrument type: EI-MS
m/z	relative intensity
120	9
133	3
134	999
135	106
136	6
146	4
147	14
148	13
160	7
161	4
162	4
176	3
190	7
191	21
192	6
204	3
205	12
217	5
218	4
394	3
395	5
407	6
408	19
409	677
410	232
411	38
412	6
