Mass spectrum: 1-OXO-1H-PYRIMIDO(1,2-A)QUINOLINE-2-CARBOXYLIC ACID ISOPROPYL ESTER; EI-MS
Formula: C16H14N2O3
Exact mass: 282.10044
Instrument type: EI-MS
m/z	relative intensity
64	65
69	160
77	64
101	12
128	670
129	150
140	98
155	5
167	52
168	370
169	75
194	4
195	190
196	790
197	100
212	50
223	370
224	120
239	35
240	8
254	23
268	32
282	999
283	170
