Mass spectrum: 1-TRIMETHYLSILYLCYCLOPENTENE; EI-MS
Formula: C8H16Si
Exact mass: 140.10213
Instrument type: EI-MS
m/z	relative intensity
41	12
43	87
45	87
53	23
55	33
57	12
58	18
59	178
60	15
66	33
67	28
69	56
71	16
72	15
73	68
74	56
75	29
80	24
81	21
83	47
85	11
93	11
95	24
96	10
97	804
98	94
99	35
109	18
123	11
125	999
126	135
127	44
140	191
141	27
