Mass spectrum: DIMETHYL ISOPHTHALATE; EI-MS
Formula: C10H10O4
Exact mass: 194.05791
Instrument type: EI-MS
m/z	relative intensity
50	87
51	29
52	42
58	22
62	15
63	15
66	42
74	4
75	69
76	111
77	82
79	1
92	31
103	73
104	35
105	2
107	26
119	40
120	62
121	2
129	17
135	261
136	26
149	3
163	999
164	118
165	17
185	1
193	31
194	325
195	35
