Mass spectrum: METHYL ISOBUTYRATE; EI-MS
Formula: C5H10O2
Exact mass: 102.06808
Instrument type: EI-MS
m/z	relative intensity
15	163
26	26
27	210
28	35
29	25
31	20
33	14
38	14
39	108
40	22
41	295
42	142
43	999
44	35
45	14
55	52
59	207
61	46
70	12
71	399
72	19
74	39
87	186
102	180
103	11
