Mass spectrum: DIPHENYL PHTHALATE; EI-MS
Formula: C20H14O4
Exact mass: 318.08921
Instrument type: EI-MS
m/z	relative intensity
50	23
51	27
65	27
76	54
77	165
78	14
104	36
105	26
115	16
152	13
153	40
197	1
225	999
226	131
227	14
