Mass spectrum: ETHYL 2-FUROATE; EI-MS
Formula: C7H8O3
Exact mass: 140.04734
Instrument type: EI-MS
m/z	relative intensity
26	17
27	74
29	85
37	27
38	82
39	250
41	11
42	10
45	45
53	13
66	12
67	22
68	103
84	26
95	999
96	171
97	18
112	408
113	24
140	183
141	13
