Mass spectrum: 2-METHYLMERCAPTOPYRIDINE; EI-MS
Formula: C6H7NS
Exact mass: 125.02992
Instrument type: EI-MS
m/z	relative intensity
32	110
39	140
45	120
50	10
51	260
52	340
57	50
78	2
79	830
80	170
82	50
83	1
92	70
110	30
124	630
125	999
126	110
127	50
