Mass spectrum: (DIIODOMETHYL)TRIMETHYLSILANE; EI-MS
Formula: C4H10I2Si
Exact mass: 339.86411
Instrument type: EI-MS
m/z	relative intensity
42	133
53	117
55	132
59	135
73	494
75	85
155	92
157	132
171	68
185	805
186	188
187	92
198	96
283	64
297	758
298	103
299	60
325	120
340	999
341	190
342	77
