Mass spectrum: 1,1-DIPHENYLTHIOUREA; EI-MS
Formula: C13H12N2S
Exact mass: 228.07212
Instrument type: EI-MS
m/z	relative intensity
27	21
28	589
29	14
32	155
38	12
39	76
40	12
41	24
43	30
45	19
50	46
51	254
52	24
55	29
57	29
60	72
62	10
63	37
64	31
65	77
66	111
67	17
69	33
70	11
71	16
74	14
75	17
76	27
77	382
78	38
81	13
82	12
83	29
84	18
85	10
89	15
90	12
91	84
92	22
93	14
95	11
96	14
97	23
103	19
104	52
109	16
110	52
111	10
114	33
115	40
116	11
118	122
119	999
120	101
129	12
139	31
140	28
141	32
142	18
143	11
149	14
151	15
152	15
153	11
154	18
166	79
167	260
168	354
169	347
170	48
192	18
193	100
194	469
195	82
227	58
228	404
229	72
230	24
