Mass spectrum: METHYL BENZOATE; EI-MS
Formula: C8H8O2
Exact mass: 136.05243
Instrument type: EI-MS
m/z	relative intensity
44	18
50	101
51	233
52	13
53	10
74	31
75	27
76	35
77	612
78	612
91	21
92	21
105	999
106	83
135	19
136	397
137	31
