Mass spectrum: BENZYLOXYACETALDEHYDE; EI-MS
Formula: C9H10O2
Exact mass: 150.06808
Instrument type: EI-MS
m/z	relative intensity
41	14
43	29
45	12
50	22
51	58
52	13
58	11
63	30
65	98
73	30
77	70
78	22
79	28
89	36
90	42
91	999
92	103
105	66
106	24
107	439
108	42
121	10
136	17
149	108
150	61
