Mass spectrum: 4-AMINOBENZONITRILE; EI-MS
Formula: C7H6N2
Exact mass: 118.0531
Instrument type: EI-MS
m/z	relative intensity
45	11
50	26
51	21
52	39
54	12
59	44
61	12
62	28
63	86
64	121
65	47
66	15
75	19
76	14
77	10
78	16
89	11
90	95
91	277
92	24
117	58
118	999
119	90
