Mass spectrum: DIMETHYL THIOETHER; EI-MS
Name: DIMETHYL SULFIDE
Formula: C2H6S
Exact mass: 62.01902
Instrument type: EI-MS
m/z	relative intensity
14	32
15	71
27	187
35	291
44	35
45	404
46	333
47	876
48	34
49	37
57	21
58	26
59	27
61	318
62	999
63	114
64	46
