Mass spectrum: DIETHYL 2-METHYLPROPANEDIOATE; EI-MS
Name: DIETHYL 2-METHYLMALONATE
Formula: C8H14O4
Exact mass: 174.08921
Instrument type: EI-MS
m/z	relative intensity
26	25
27	176
28	73
29	999
30	29
31	28
39	47
41	16
43	253
44	30
45	173
53	3
54	20
55	227
56	110
57	37
58	20
59	36
69	142
70	2
72	22
73	598
74	194
75	2
82	23
83	98
84	150
85	7
87	476
88	51
99	29
100	15
101	150
102	274
103	30
113	3
115	273
116	36
128	224
129	67
130	309
143	41
146	20
147	4
156	38
157	334
174	490
