Mass spectrum: ETHYL 2,4-HEXADIENOATE; EI-MS
Name: ETHYL SORBATE
Formula: C8H12O2
Exact mass: 140.08373
Instrument type: EI-MS
m/z	relative intensity
15	29
26	39
27	269
29	17
30	13
31	14
37	13
38	5
39	533
41	601
42	30
43	11
45	22
50	26
51	54
52	4
53	33
55	79
56	14
58	1
62	16
63	36
64	12
65	19
66	252
67	999
68	109
69	4
70	12
79	14
81	27
83	3
84	36
93	13
94	25
95	96
96	62
97	734
98	36
111	6
112	90
125	280
126	22
140	40
141	33
