Mass spectrum: 1,2,2,6,6-PENTAMETHYL-2,6-DISILAPIPERIDINE; EI-MS
Formula: C8H21NSi2
Exact mass: 187.12125
Instrument type: EI-MS
m/z	relative intensity
42	27
43	103
45	89
51	33
58	33
59	246
64	292
65	44
71	30
72	42
73	174
78	88
79	99
85	35
86	57
88	60
100	37
101	35
117	78
130	43
144	399
145	66
146	43
159	38
172	999
173	179
174	84
187	136
188	27
