Mass spectrum: VALERIC ACID; EI-MS
Formula: C5H10O2
Exact mass: 102.06808
Instrument type: EI-MS
m/z	relative intensity
15	19
26	42
27	269
28	12
29	238
30	14
31	24
38	2
39	127
40	14
41	220
42	10
43	91
45	98
50	13
51	1
53	13
55	67
56	33
57	3
59	12
60	999
61	41
73	37
74	37
85	14
87	24
102	8
