Mass spectrum: SEC-BUTYL CHLORIDE; EI-MS
Name: 1-METHYLPROPYL CHLORIDE
Formula: C4H9Cl
Exact mass: 92.03928
Instrument type: EI-MS
m/z	relative intensity
15	20
26	60
27	406
28	128
29	404
37	11
38	23
39	157
40	23
41	579
42	29
49	22
50	23
51	21
53	21
55	76
56	999
57	875
58	38
61	11
62	122
63	376
64	47
65	121
76	11
77	54
79	17
92	6
