Mass spectrum: HEXYL HEXANOATE; EI-MS
Formula: C12H24O2
Exact mass: 200.17763
Instrument type: EI-MS
m/z	relative intensity
27	202
29	278
31	14
39	112
41	447
42	238
43	999
44	24
45	18
53	21
54	22
55	299
56	479
57	95
59	10
60	127
61	184
67	15
68	10
69	205
70	48
71	217
72	11
73	111
74	11
75	12
83	29
84	548
85	97
87	72
89	26
99	550
100	30
101	12
116	32
117	674
118	35
129	18
131	12
144	11
