Mass spectrum: 1-PROPANOL; EI-MS
Name: PROPYL ALCOHOL
Formula: C3H8O
Exact mass: 60.05751
Instrument type: EI-MS
m/z	relative intensity
15	22
26	34
27	129
28	5
29	72
30	17
31	999
32	2
33	11
38	12
39	42
40	1
41	69
42	109
43	21
45	2
59	106
60	93
