Mass spectrum: DI(2-ETHYLHEXYL) MALEATE; EI-MS
Formula: C20H36O4
Exact mass: 340.26136
Instrument type: EI-MS
m/z	relative intensity
53	36
54	462
55	226
56	999
57	47
67	28
68	26
69	21
70	855
71	577
72	34
82	10
83	239
84	129
97	21
99	18
100	331
101	21
110	47
111	6
112	436
113	301
114	24
117	86
118	52
211	29
212	33
229	9
341	26
