Mass spectrum: 7-ACETYL-4-UMBELLIFERONE; EI-MS
Formula: C12H10O4
Exact mass: 218.05791
Instrument type: EI-MS
m/z	relative intensity
41	142
43	556
63	41
65	12
77	46
79	18
91	164
119	7
120	46
147	225
148	999
176	85
177	53
218	126
