Mass spectrum: (16R)-ENT-18-HYDOXYKAURAN-15-ONE; EI-MS
Formula: C20H32O2
Exact mass: 304.24023
Instrument type: EI-MS
m/z	relative intensity
40	40
41	999
42	40
43	41
45	115
51	400
52	170
53	14
54	45
55	770
56	142
57	23
65	140
67	284
68	80
69	27
70	91
71	135
74	122
77	21
78	25
79	635
80	90
81	50
82	115
83	365
84	150
85	29
91	582
92	165
93	285
94	16
95	305
96	92
97	135
105	25
106	145
107	280
108	115
109	27
110	80
111	105
112	20
115	7
119	195
120	115
121	195
122	11
123	330
124	105
125	95
131	10
133	145
134	90
135	205
141	8
145	197
146	30
147	165
148	3
149	140
150	15
151	85
159	7
160	20
161	82
162	18
163	14
164	20
165	30
171	21
172	2
173	60
174	20
175	38
176	1
177	20
187	30
189	20
191	4
199	15
201	24
202	10
203	2
213	25
214	10
215	100
228	1
229	18
231	25
241	15
242	1
243	25
244	15
245	24
246	22
253	15
254	10
255	80
256	2
257	20
259	39
261	65
273	3
274	305
275	75
286	35
287	1
288	20
289	65
304	225
305	5
306	10
