Mass spectrum: PERYLENE; EI-MS
Formula: C20H12
Exact mass: 252.0939
Instrument type: EI-MS
m/z	relative intensity
34	13
40	25
44	85
250	16
252	999
253	225
254	27
