Mass spectrum: PHENYLDIMETHYLSILANE; EI-MS
Formula: C8H12Si
Exact mass: 136.07083
Instrument type: EI-MS
m/z	relative intensity
43	167
51	18
53	69
55	16
57	16
58	333
59	17
64	13
65	16
66	32
69	18
79	17
80	13
81	36
84	14
98	28
100	33
101	28
107	14
108	149
109	34
119	41
120	39
121	999
122	132
123	41
135	296
136	510
137	75
138	24
