Mass spectrum: 9-METHYLPHENANTHRENE; EI-MS
Formula: C15H12
Exact mass: 192.0939
Instrument type: EI-MS
m/z	relative intensity
96	4
115	2
139	2
151	4
152	7
153	1
163	2
164	4
165	124
166	19
167	1
176	18
177	4
178	8
188	4
189	104
190	59
191	356
192	999
193	151
194	11
