Mass spectrum: N-ACETYL-PARA-TOLUIDINE; EI-MS
Formula: C9H11NO
Exact mass: 149.08406
Instrument type: EI-MS
m/z	relative intensity
27	18
39	35
43	149
50	21
51	51
52	36
53	27
63	21
65	28
77	141
78	55
79	75
80	16
89	11
91	31
104	27
105	12
106	719
107	999
108	88
149	590
150	69
