Mass spectrum: DIALLYL PHTHALATE; EI-MS
Name: PHTHALIC ACID DIALLYL ESTER
Formula: C14H14O4
Exact mass: 246.08921
Instrument type: EI-MS
m/z	relative intensity
41	368
42	13
43	17
57	10
69	15
70	11
80	32
83	29
98	209
99	14
105	34
117	24
118	11
121	21
132	300
133	32
145	10
146	14
147	16
149	999
150	89
161	18
162	21
172	78
173	11
188	159
189	406
190	63
246	2
