Mass spectrum: VINYL ACETATE; EI-MS
Name: ACETIC ACID ETHENYL ESTER
Formula: C4H6O2
Exact mass: 86.03678
Instrument type: EI-MS
m/z	relative intensity
42	61
43	999
44	26
86	106
