Mass spectrum: TRIMETHYLPHENYLSILANE; EI-MS
Formula: C9H14Si
Exact mass: 150.08648
Instrument type: EI-MS
m/z	relative intensity
15	33
27	28
28	13
29	25
39	26
43	140
44	15
45	36
50	36
51	81
53	64
55	24
58	25
65	22
66	12
67	23
67.5	12
73	25
74	14
77	52
78	16
79	25
91	47
92	22
93	30
105	80
107	46
109	12
121	30
123	18
135	999
136	138
137	42
150	114
151	17
