Mass spectrum: 3-ETHYL-3-PHENYL-2,6-PIPERIDINEDIONE; EI-MS
Name: GLUTETHIMIDE
Formula: C13H15NO2
Exact mass: 217.11028
Instrument type: EI-MS
m/z	relative intensity
38	24
39	281
40	36
41	13
42	79
43	24
44	64
45	1
50	84
51	258
52	74
53	8
54	74
55	89
56	19
57	2
58	29
59	51
62	40
63	14
64	49
65	149
66	24
67	3
68	14
69	14
70	24
71	1
72	9
73	14
74	34
75	5
76	60
77	304
78	151
79	4
80	14
82	44
86	11
87	3
88	19
89	139
90	37
91	48
92	49
101	19
102	99
103	27
104	97
105	69
106	19
112	1
113	19
114	27
115	514
116	17
117	999
118	149
119	24
120	1
126	12
127	37
128	80
129	10
130	59
131	119
132	555
133	7
134	9
140	9
141	14
142	1
143	19
144	29
145	44
146	7
147	39
148	9
157	49
158	1
159	29
160	449
161	109
162	2
172	29
173	11
174	24
175	1
188	39
189	890
190	119
191	2
202	44
203	9
217	92
218	19
