Mass spectrum: 9,10-BIS(TRIMETHYLSILYL)ANTHRACENE; EI-MS
Formula: C20H26Si2
Exact mass: 322.1573
Instrument type: EI-MS
m/z	relative intensity
43	28
44	11
45	107
59	27
63	13
65	17
73	999
74	91
75	98
76	27
77	13
88	11
89	12
93	128
95	48
118	15
123	13
129	11
130	16
131	16
137	12
138	41
139	14
145	14
146	112
147	30
151	14
152	20
165	13
176	22
177	14
178	71
179	22
180	24
189	17
191	22
192	18
202	19
203	22
204	17
205	27
206	25
207	37
208	31
212	17
215	11
217	61
218	30
219	213
220	48
221	15
229	10
231	33
232	22
233	96
234	53
235	113
236	26
245	19
247	21
248	17
249	242
250	124
251	34
261	12
265	11
269	11
275	12
277	10
281	11
291	19
305	14
307	270
308	89
309	32
322	645
323	211
324	74
325	19
