Mass spectrum: 2-(2-FURYL)ACRYLIC ACID METHYL ESTER; EI-MS
Formula: C8H8O3
Exact mass: 152.04734
Instrument type: EI-MS
m/z	relative intensity
42	56
53	49
59	25
62	5
63	131
64	56
65	530
66	6
77	35
78	117
79	53
81	5
92	86
93	143
94	65
107	4
108	96
109	103
121	999
122	9
123	30
124	72
152	652
153	49
