Mass spectrum: LUP-20-EN-3-BETA-OL; EI-MS
Name: LUPEOL
Formula: C30H50O
Exact mass: 426.38617
Instrument type: EI-MS
m/z	relative intensity
18	86
28	35
43	69
55	5
57	52
67	52
68	35
69	21
70	52
71	52
79	35
80	4
81	190
82	69
83	86
85	4
91	69
93	121
94	103
95	29
96	69
97	69
105	52
106	4
107	190
108	259
109	328
110	12
111	52
118	138
119	103
120	22
121	138
122	224
123	52
133	10
134	103
135	276
136	155
137	10
139	52
145	35
147	138
148	12
149	103
150	35
151	35
152	4
153	35
159	35
161	121
162	5
163	103
165	35
173	52
175	12
176	52
177	69
178	35
179	4
187	121
188	52
189	310
190	21
191	172
192	52
193	35
201	7
203	224
204	241
205	155
206	16
207	483
208	172
209	35
216	9
217	69
218	414
219	121
220	10
221	52
222	35
229	52
230	4
231	35
234	121
235	35
247	5
248	35
257	69
271	35
272	5
297	35
298	35
299	52
314	5
315	155
316	138
317	69
342	4
343	35
344	35
370	35
383	4
393	35
408	35
411	121
412	5
426	999
427	345
428	52
