Mass spectrum: ISOPROPYLHYDRAZINE; EI-MS
Formula: C3H10N2
Exact mass: 74.0844
Instrument type: EI-MS
m/z	relative intensity
26	19
27	187
28	51
29	6
30	90
31	238
32	661
33	1
38	13
39	87
40	27
41	22
42	356
43	151
44	22
45	3
56	51
57	13
58	15
59	999
60	32
73	17
74	340
75	27
