Mass spectrum: ALLYL CHLORIDE; EI-MS
Formula: C3H5Cl
Exact mass: 76.00798
Instrument type: EI-MS
m/z	relative intensity
15	18
26	28
27	64
28	31
36	11
37	53
38	73
39	459
40	79
41	999
42	38
49	34
51	11
75	36
76	294
77	20
78	95
