Mass spectrum: HALFORDIN; EI-MS
Formula: C14H12O6
Exact mass: 276.06339
Instrument type: EI-MS
m/z	relative intensity
119	30
147	90
175	80
190	190
218	40
233	450
234	50
261	150
276	999
277	180
