Mass spectrum: BENZONITRILE; EI-MS
Formula: C7H5N
Exact mass: 103.0422
Instrument type: EI-MS
m/z	relative intensity
26	20
27	16
37	30
38	30
39	52
49	22
50	153
51	78
515	33
52	46
61	11
62	10
63	27
64	16
73	12
74	35
75	71
76	339
77	57
99	12
102	18
103	999
104	84
