Mass spectrum: N-METHYL-ORTHO-TOLUIDINE; EI-MS
Formula: C8H11N
Exact mass: 121.08915
Instrument type: EI-MS
m/z	relative intensity
39	201
51	156
65	192
77	19
91	337
104	121
106	830
121	999
