Mass spectrum: 2-METHYLPYRAZINE; EI-MS
Formula: C5H6N2
Exact mass: 94.0531
Instrument type: EI-MS
m/z	relative intensity
26	408
27	30
39	200
40	520
41	256
42	327
52	39
53	478
54	20
66	56
67	981
68	106
79	11
93	49
94	999
95	266
