Mass spectrum: META FLUORO NITROBENZENE; EI-MS
Formula: C6H4FNO2
Exact mass: 141.02261
Instrument type: EI-MS
m/z	relative intensity
27	14
30	263
31	29
37	37
38	39
39	43
49	21
50	169
51	89
57	93
61	27
62	32
63	38
68	76
69	124
73	16
74	116
75	778
76	58
81	16
82	14
83	193
92	14
93	21
94	59
95	999
96	64
111	101
141	472
142	35
