Mass spectrum: 3-(2-AMINOETHYL)-2-METHYL-1-PHENYLINDOLE; EI-MS
Formula: C17H18N2
Exact mass: 250.147
Instrument type: EI-MS
m/z	relative intensity
30	15
51	21
77	40
91	1
102	15
103	13
115	34
116	1
128	11
142	12
143	11
169	1
178	29
203	10
204	99
205	4
206	35
207	12
216	15
217	5
218	76
219	40
220	999
221	31
222	34
232	11
233	10
248	1
250	130
251	22
