Mass spectrum: 1-NAPHTHALDEHYDE; EI-MS
Formula: C11H8O
Exact mass: 156.05751
Instrument type: EI-MS
m/z	relative intensity
37	20
38	25
39	44
50	125
51	176
52	30
61	33
62	65
63	179
64	103
74	151
75	188
76	101
77	204
78	78
85	15
86	38
87	62
97	17
98	64
99	36
100	24
101	115
102	125
126	280
127	940
128	947
129	105
155	575
156	999
157	123
