Mass spectrum: N-(2,2-DIDEUTERO-2-PHENYLACETYL)PIPERIDIN-2-ONE; EI-MS
Formula: C13H15NO2
Exact mass: 217.11028
Instrument type: EI-MS
m/z	relative intensity
55	135
56	45
70	10
82	32
90	13
91	130
92	22
93	140
94	13
98	23
99	12
100	8
101	17
102	135
103	12
107	8
118	44
119	999
120	100
121	9
126	7
218	7
219	70
220	13
221	2
