Mass spectrum: 11-HYDROXY-11-METHYLDIBENZO(C,H)BICYCRO(4.4.1)UNDECA-3,8-DIENE; EI-MS
Formula: C20H22O
Exact mass: 278.16707
Instrument type: EI-MS
m/z	relative intensity
40	135
42	94
44	669
46	156
51	85
65	145
77	318
78	331
79	85
89	98
91	563
103	295
104	652
105	222
115	853
116	310
117	538
118	85
127	211
128	531
129	491
130	157
131	133
132	89
141	476
142	187
143	297
144	89
145	95
153	71
154	89
155	999
156	296
157	57
165	74
167	49
178	72
189	49
191	60
202	76
203	55
215	66
216	48
231	101
245	60
260	100
278	206
279	65
