Mass spectrum: DIMETHOXYMETHANE; EI-MS
Formula: C3H8O2
Exact mass: 76.05243
Instrument type: EI-MS
m/z	relative intensity
15	60
29	591
30	58
31	13
32	8
43	13
44	18
45	999
46	21
47	50
75	612
76	21
