Mass spectrum: 4-METHOXYBENZOIC ACID TRIMETHYLSILYL ESTER; EI-MS
Formula: C11H16O3Si
Exact mass: 224.08687
Instrument type: EI-MS
m/z	relative intensity
64	64
73	46
75	71
77	17
92	148
104	40
107	122
135	999
136	84
165	906
166	128
167	4
209	804
210	119
211	37
224	15
225	23
