Mass spectrum: ORTHO FLUORO ISOBUTYLBENZOATE; EI-MS
Formula: C11H13FO2
Exact mass: 196.08996
Instrument type: EI-MS
m/z	relative intensity
27	54
29	74
39	64
41	148
43	29
50	28
51	20
55	21
56	312
57	36
68	11
69	27
73	17
74	15
75	175
76	18
94	21
95	300
96	25
97	16
123	999
124	73
140	13
141	306
142	20
