Mass spectrum: 2,3-BIS(TRIFLUOROMETHYL)-5-METHYLTHIOPHENE; EI-MS
Formula: C7H4F6S
Exact mass: 233.99379
Instrument type: EI-MS
m/z	relative intensity
31	30
32	77
39	66
44	6
45	143
57	51
59	76
63	1
69	187
75	51
93	50
95	1
101	77
113	77
115	121
121	1
145	49
165	999
166	72
184	14
215	297
233	275
234	570
235	50
