Mass spectrum: 2-ACETYLTHIOPHENE; EI-MS
Formula: C6H6OS
Exact mass: 126.01394
Instrument type: EI-MS
m/z	relative intensity
39	341
43	158
57	27
58	42
69	10
82	10
83	126
84	21
98	22
111	999
112	79
113	58
126	583
128	21
