Mass spectrum: DELTA-CADINENE; EI-MS
Formula: C15H24
Exact mass: 204.1878
Instrument type: EI-MS
m/z	relative intensity
27	38
29	32
39	50
40	1
41	166
42	10
43	38
51	2
52	6
53	45
55	90
56	1
57	5
63	8
64	6
65	4
66	8
67	36
69	75
70	1
77	90
78	25
79	68
80	1
81	178
82	12
83	8
89	1
91	190
92	61
93	106
94	1
95	27
103	22
104	13
105	4
106	68
107	43
108	5
109	0
115	47
116	20
117	62
118	0
119	385
121	31
122	5
127	2
128	35
129	38
130	20
131	5
132	20
133	106
134	543
135	6
136	5
141	11
142	10
143	1
144	10
145	48
146	21
147	6
148	10
157	8
159	31
160	3
161	999
162	190
163	15
175	0
176	11
189	173
190	27
203	1
204	510
205	85
206	6
