Mass spectrum: ALPHA-METHYLENE-BETA,GAMMA-DIHYDROXYBUTYRIC ACID; EI-MS
Formula: C5H8O4
Exact mass: 132.04226
Instrument type: EI-MS
m/z	relative intensity
37	95
38	127
39	676
40	37
41	122
42	88
43	486
44	74
45	257
55	372
56	534
57	2
60	210
67	88
68	506
84	999
96	608
