Mass spectrum: 3,3,5-TRIMETHYL-1,2,3,4-TETRAHYDRO-GAMMA-CARBOLINE-1-SPIRO-4'-(1'-METHYL)PIPERIDINE; EI-MS
Formula: C19H27N3
Exact mass: 297.2205
Instrument type: EI-MS
m/z	relative intensity
58	70
70	85
168	129
169	16
170	65
182	59
183	58
196	8
197	78
211	156
212	25
225	3
226	199
227	63
238	47
239	999
240	274
254	88
268	59
296	4
297	346
