Mass spectrum: 4,6-DIHYDROXYPYRIMIDINE-5-CARBOXAMIDE; EI-MS
Formula: C5H5N3O3
Exact mass: 155.03309
Instrument type: EI-MS
m/z	relative intensity
40	27
41	19
42	43
44	7
57	10
67	10
68	21
69	10
71	100
84	14
110	27
112	3
139	667
140	44
155	999
156	80
