Mass spectrum: GLYCEROL-1-(O-TOLYL) ETHER; EI-MS
Name: MEPHENESIN
Formula: C10H14O3
Exact mass: 182.09429
Instrument type: EI-MS
m/z	relative intensity
51	74
52	39
53	34
54	0
55	24
56	14
57	79
61	2
62	14
63	39
65	109
77	12
78	59
79	94
80	49
89	3
90	74
91	229
92	39
93	2
105	39
106	14
107	239
108	999
109	129
121	59
122	29
133	5
151	14
182	189
183	24
