Mass spectrum: 1-IODO-4-NITROBENZENE; EI-MS
Formula: C6H4INO2
Exact mass: 248.92867
Instrument type: EI-MS
m/z	relative intensity
28	27
30	50
37	34
38	46
39	14
49	20
50	516
51	34
61	15
62	17
63	46
64	87
73	37
74	186
75	190
76	999
77	67
92	122
127	22
128	12
191	113
203	330
204	20
219	212
220	14
233	17
249	841
250	57
