Mass spectrum: 2-METHYLTHIO-5-AMINOTHIAZOLO(5,4-D)PYRIMIDINE; EI-MS
Formula: C6H6N4S2
Exact mass: 198.00339
Instrument type: EI-MS
m/z	relative intensity
198	999
165	890
139	80
125	70
124	80
97	140
85	70
83	60
