Mass spectrum: CHLOROETHYLENE; EI-MS
Name: VINYL CHLORIDE
Formula: C2H3Cl
Exact mass: 61.99233
Instrument type: EI-MS
m/z	relative intensity
24	24
25	103
26	242
27	76
28	23
35	73
36	27
37	3
47	48
49	17
59	20
60	7
61	84
62	999
63	50
64	308
