Mass spectrum: BENZONITRILE; EI-MS
Formula: C7H5N
Exact mass: 103.0422
Instrument type: EI-MS
m/z	relative intensity
39	26
50	38
51	20
52	30
63	17
64	10
75	14
76	259
77	47
102	16
103	999
104	77
