Mass spectrum: 1,3-BENZODIOXOL-5-METHYL 1,3-BENZODIOXOLE-5-CARBOXYLATE; EI-MS
Formula: C16H12O6
Exact mass: 300.06339
Instrument type: EI-MS
m/z	relative intensity
77	113
135	999
136	114
149	36
150	116
300	359
