Mass spectrum: 1-NAPHTHOIC ACID TRIMETHYLSILYL ESTER; EI-MS
Formula: C14H16O2Si
Exact mass: 244.09196
Instrument type: EI-MS
m/z	relative intensity
45	133
63	64
73	102
74	5
75	121
76	52
77	120
101	7
114	125
126	164
127	996
128	11
155	999
156	117
185	732
186	14
187	44
229	697
230	128
244	20
245	43
