Mass spectrum: METHYL 2,6-DIMETHYL-9-(N-METHYLPIPERAZINYLCARBAMOYL)-6-NONENOATE; EI-MS
Formula: C18H32N2O3
Exact mass: 324.24129
Instrument type: EI-MS
m/z	relative intensity
28	525
32	127
43	198
44	22
56	238
57	348
58	522
70	999
71	172
83	311
98	498
99	47
101	283
166	198
185	3
209	13
324	519
