Mass spectrum: ISOAMYL PROPIONATE; EI-MS
Name: ISOPENTYL PROPIONATE
Formula: C8H16O2
Exact mass: 144.11503
Instrument type: EI-MS
m/z	relative intensity
15	13
26	21
27	218
28	77
29	447
30	11
31	25
39	95
40	13
41	191
42	153
43	340
44	15
45	18
53	15
54	12
55	407
56	45
57	999
58	37
69	61
70	695
71	103
74	16
75	160
85	18
87	53
101	62
115	11
