Mass spectrum: OXOLANE; EI-MS
Name: TETRAHYDROFURAN
Formula: C4H8O
Exact mass: 72.05751
Instrument type: EI-MS
m/z	relative intensity
27	159
28	69
29	79
39	129
40	66
41	461
42	999
43	154
71	238
72	254
