Mass spectrum: DIETHYLHYDRAZONE ISOBUTYRALDEHYDE; EI-MS
Name: ISOBUTYRALDEHYDE DIETHYLHYDRAZONE
Formula: C8H18N2
Exact mass: 142.147
Instrument type: EI-MS
m/z	relative intensity
26	16
27	164
28	182
29	46
30	259
31	18
39	73
40	2
41	177
42	20
43	409
44	26
45	19
53	12
54	16
55	5
56	145
57	82
58	569
59	4
68	15
69	16
70	123
71	3
72	148
73	46
74	9
83	1
84	8
85	11
86	20
97	1
99	46
111	10
113	195
114	2
127	999
128	117
141	34
142	50
143	48
