Mass spectrum: P-DIETHOXYBENZENE; EI-MS
Name: 1,4-DIETHOXYBENZENE
Formula: C10H14O2
Exact mass: 166.09938
Instrument type: EI-MS
m/z	relative intensity
26	37
27	227
28	17
29	246
38	19
39	70
43	12
50	20
51	27
52	30
53	88
54	51
55	34
62	16
63	48
64	51
65	67
66	15
77	17
81	241
82	46
92	11
109	594
110	999
111	54
137	68
138	96
139	12
166	479
167	44
