Mass spectrum: FURAN; EI-MS
Formula: C4H4O
Exact mass: 68.02621
Instrument type: EI-MS
m/z	relative intensity
14	19
25	11
26	22
28	25
29	118
34	27
36	16
37	91
38	150
39	999
40	149
41	10
42	84
68	869
69	39
