Mass spectrum: PHNYLTRIMETHYLAMMONIUM BROMIDE; EI-MS
Formula: C9H14BrN
Exact mass: 215.03096
Instrument type: EI-MS
m/z	relative intensity
42	180
44	170
58	280
77	3
79	180
91	190
94	190
104	2
105	270
120	999
121	740
134	3
135	160
136	30
