Mass spectrum: TRANS-1,2-CYCLOHEXANEDIOL; EI-MS
Formula: C6H12O2
Exact mass: 116.08373
Instrument type: EI-MS
m/z	relative intensity
14	20
15	77
19	30
26	60
27	404
28	131
29	418
30	53
31	224
38	36
39	336
40	56
41	366
42	249
43	298
44	292
45	60
50	23
51	35
53	54
54	66
55	210
56	90
57	569
58	40
60	36
67	57
68	37
69	222
70	999
71	67
79	38
80	90
81	46
83	332
97	71
98	306
99	42
116	83
