Mass spectrum: ETHYL CHLOROFORMATE; EI-MS
Formula: C3H5ClO2
Exact mass: 107.99781
Instrument type: EI-MS
m/z	relative intensity
15	62
18	22
25	12
26	99
27	356
29	999
30	29
35	48
36	17
37	15
42	11
43	31
44	80
45	72
63	213
64	25
65	69
93	27
