Mass spectrum: 5-ACETOXYIMINO-3,7-DIMETHYLCYCLOHEPTA-3,6-DIENE-1,2-DIONE; EI-MS
Formula: C11H11NO4
Exact mass: 221.06881
Instrument type: EI-MS
m/z	relative intensity
41	180
42	100
43	999
44	10
45	110
51	80
52	120
53	12
54	50
55	55
57	35
60	7
64	60
65	205
66	405
67	27
68	120
69	60
73	40
77	22
78	90
79	245
80	170
81	5
83	40
85	45
91	370
92	16
93	155
94	415
95	70
96	5
104	50
105	110
106	350
107	35
108	155
109	40
112	180
113	6
120	265
121	115
122	60
123	8
132	45
133	110
134	525
135	23
136	225
137	50
139	35
149	6
150	50
151	655
152	70
161	9
162	230
163	75
164	45
178	5
179	495
180	70
193	45
221	30
