Mass spectrum: 2,3,6-TRIMETHYLPYRIDINE; EI-MS
Formula: C8H11N
Exact mass: 121.08915
Instrument type: EI-MS
m/z	relative intensity
26	42
27	196
28	50
29	3
37	30
38	43
39	225
40	4
41	60
42	73
50	89
51	17
52	95
53	128
54	31
62	3
63	43
64	40
65	42
66	4
74	37
75	29
76	36
77	21
78	88
79	335
80	89
81	3
91	36
92	20
93	39
94	4
104	20
106	171
107	32
118	4
119	59
120	601
121	999
122	94
