Mass spectrum: 3-HYDROXYMETHYL-6-METHYL-2,5-PIPERAZINEDIONE; EI-MS
Name: CYCLO-ALANYL-SERINE
Formula: C6H10N2O3
Exact mass: 158.06914
Instrument type: EI-MS
m/z	relative intensity
14	27
15	205
26	37
27	12
28	589
29	83
30	105
31	11
32	17
39	15
40	49
41	11
42	340
43	115
44	999
45	3
54	18
55	60
56	66
57	6
58	30
59	15
60	196
69	5
70	53
71	87
72	21
73	2
83	12
84	10
85	85
86	1
87	26
97	64
98	16
99	16
100	21
111	13
112	28
113	16
114	13
115	24
127	29
128	75
129	59
140	51
158	13
159	11
