Mass spectrum: ACETONITRILE; EI-MS
Formula: C2H3N
Exact mass: 41.02655
Instrument type: EI-MS
m/z	relative intensity
12	50
13	37
14	116
15	3
24	10
25	21
26	35
27	1
28	25
38	210
39	195
40	51
41	999
42	26
