Mass spectrum: BORNEOL; EI-MS
Name: ENDO-1,7,7-TRIMETHYLBICYCLO(2.2.1)HEPTAN-2-OL
Formula: C10H18O
Exact mass: 154.13577
Instrument type: EI-MS
m/z	relative intensity
43	15
57	11
59	10
67	10
69	26
70	14
71	42
72	35
81	15
82	62
83	36
84	57
85	12
92	48
93	64
94	12
95	999
96	96
97	15
99	11
107	15
108	39
109	32
110	531
111	70
112	10
113	14
121	68
123	14
136	166
137	21
139	203
140	25
154	36
