Mass spectrum: ACETIC ACID PARA-TOLYL ESTER; EI-MS
Name: PARA-CRESOL ACETATE
Formula: C9H10O2
Exact mass: 150.06808
Instrument type: EI-MS
m/z	relative intensity
15	34
27	36
39	37
43	174
50	22
51	45
52	27
53	30
63	15
65	16
77	89
78	27
79	62
80	42
90	50
91	25
107	415
108	999
109	76
150	102
151	10
