Mass spectrum: 3,3-DIETHOXYPROPIOPHENONE; EI-MS
Formula: C13H18O3
Exact mass: 222.12559
Instrument type: EI-MS
m/z	relative intensity
43	30
44	35
45	14
47	212
51	55
71	32
72	25
75	195
76	21
77	216
78	30
99	15
103	301
104	23
105	999
106	82
120	14
147	41
177	43
178	15
193	157
194	20
222	21
