Mass spectrum: 3-HYDROXYTETRAHYDROFURAN; EI-MS
Formula: C4H8O2
Exact mass: 88.05243
Instrument type: EI-MS
m/z	relative intensity
15	14
27	33
28	137
29	14
30	208
31	360
32	91
33	2
39	39
40	82
41	105
42	9
43	152
44	131
45	56
55	1
56	35
57	999
58	882
59	6
60	61
61	11
69	16
70	20
71	23
87	16
88	169
89	11
