Mass spectrum: PHOSPHORIC ACID TRI-N-BUTYL ESTER; EI-MS
Formula: C12H27O4P
Exact mass: 266.1647
Instrument type: EI-MS
m/z	relative intensity
27	38
28	308
29	92
32	36
41	137
55	33
56	30
57	145
99	999
111	21
125	56
137	39
155	324
211	460
212	34
