Mass spectrum: (Z,Z)-12,15-OCTADECADIENOIC ACID METHYL ESTER; EI-MS
Formula: C19H34O2
Exact mass: 294.25588
Instrument type: EI-MS
m/z	relative intensity
40	11
41	658
42	64
43	206
45	30
51	15
53	112
54	269
55	670
56	45
57	54
59	174
65	65
66	59
67	999
68	528
69	242
70	26
71	19
73	41
74	169
75	16
77	84
78	23
79	215
80	112
81	578
82	481
83	159
84	45
85	19
87	87
91	47
93	85
94	62
95	484
96	357
97	129
105	11
107	47
108	66
109	186
110	117
111	38
121	49
122	46
123	70
124	52
125	34
129	23
133	17
135	46
136	33
137	36
138	39
143	19
149	32
150	41
151	26
152	27
153	14
163	28
164	40
165	16
166	15
177	18
178	22
179	17
192	17
220	18
262	34
263	48
294	85
295	19
