Mass spectrum: 3,4,5-TRIMETHYL-2-PYRAZOLINE; EI-MS
Formula: C6H12N2
Exact mass: 112.10005
Instrument type: EI-MS
m/z	relative intensity
26	24
27	130
28	170
29	8
30	52
39	80
41	125
42	32
43	59
44	31
53	29
54	4
55	48
56	240
57	21
67	1
68	110
69	170
70	62
81	1
82	22
83	18
95	19
96	2
97	999
98	56
109	8
111	5
112	300
113	24
