Mass spectrum: BETA-CUBEBENE; EI-MS
Formula: C15H24
Exact mass: 204.1878
Instrument type: EI-MS
m/z	relative intensity
26	5
27	70
29	57
39	8
40	8
41	243
42	13
43	8
51	22
52	11
53	67
54	1
55	160
56	15
57	33
58	1
63	11
64	8
65	55
66	0
67	90
68	8
69	100
70	0
71	20
75	6
77	130
78	4
79	175
80	41
81	188
82	3
83	11
89	8
90	6
91	30
92	67
93	165
94	21
95	0
96	6
97	8
102	8
103	3
104	25
105	342
106	62
107	10
108	20
109	16
110	5
115	4
116	17
117	55
118	17
119	2
120	257
121	53
122	8
123	1
127	10
128	17
129	16
130	1
131	25
132	11
133	97
134	2
135	6
141	5
145	15
146	1
147	50
148	16
149	8
159	1
160	35
161	999
162	108
163	1
189	6
204	132
205	25
