Mass spectrum: 2ALPHA-ALLYL-2BETA-FORMYL-11ALPHA-METHOXY-6,6,8BETA-TRIMETHYL-5ALPHA-TRICYCLO(6.3.0.0(1,5))UNDECANE; EI-MS
Formula: C19H30O2
Exact mass: 290.22458
Instrument type: EI-MS
m/z	relative intensity
81	70
93	23
95	42
96	2
105	23
107	28
108	33
109	15
119	51
121	28
123	51
131	4
133	28
134	51
135	79
137	5
138	28
145	84
146	42
147	5
149	182
150	65
157	33
159	8
160	33
161	242
162	103
163	8
165	23
173	140
174	112
175	11
176	23
177	93
178	131
179	14
183	28
184	47
187	61
188	3
189	98
190	42
191	191
192	8
199	117
200	65
201	228
202	10
203	775
204	154
205	145
206	4
215	42
216	51
217	550
218	14
219	999
220	140
225	51
229	2
230	51
231	33
232	33
233	7
234	79
235	33
240	56
243	9
245	23
246	23
247	65
248	7
249	196
250	65
258	375
259	15
260	33
261	475
262	131
263	2
272	42
274	23
275	270
276	6
290	275
291	51
