Mass spectrum: PHENOL; EI-MS
Formula: C6H6O
Exact mass: 94.04186
Instrument type: EI-MS
m/z	relative intensity
54	67
65	173
66	276
75	42
78	46
85	31
94	999
95	88
