Mass spectrum: 1,5-DI-TERT-BUTYL-3,3-DIMETHYLBICYCLO(3.1.0)HEXAN-2-ONE; EI-MS
Formula: C16H28O
Exact mass: 236.21402
Instrument type: EI-MS
m/z	relative intensity
41	300
43	100
55	150
57	999
67	60
69	100
81	50
83	1
109	100
123	100
137	200
165	5
180	770
236	4
