Mass spectrum: 4-BENZYLOXY-2-METHYL-2-BUTEN-1-OL; EI-MS
Formula: C12H16O2
Exact mass: 192.11503
Instrument type: EI-MS
m/z	relative intensity
29	40
39	51
41	50
43	11
45	31
51	32
55	170
56	3
57	29
58	32
65	94
68	3
71	54
77	62
79	74
83	12
89	26
91	999
92	415
93	3
100	27
101	71
105	31
107	18
108	122
148	26
161	29
