Mass spectrum: TRANS-BICYCLO(4.3.0)NONANE; EI-MS
Name: TRANS-HEXAHYDROINDANE
Formula: C9H16
Exact mass: 124.1252
Instrument type: EI-MS
m/z	relative intensity
26	20
27	329
28	220
29	219
32	31
38	13
39	409
40	60
41	516
42	52
43	26
50	16
51	38
52	22
53	136
54	254
55	299
56	18
65	39
66	194
67	999
68	261
69	47
77	37
79	62
80	26
81	371
82	464
83	55
91	13
94	10
95	118
96	402
97	29
124	143
125	13
