Mass spectrum: PROPARGYL CHLORIDE; EI-MS
Name: 3-CHLORO-1-PROPYNE
Formula: C3H3Cl
Exact mass: 73.99233
Instrument type: EI-MS
m/z	relative intensity
24	11
25	24
26	15
35	30
36	75
37	216
38	251
39	999
40	34
47	34
49	13
72	15
73	49
74	433
75	32
76	144
