Mass spectrum: METHYL DISULFIDE; EI-MS
Formula: C2H6S2
Exact mass: 93.99109
Instrument type: EI-MS
m/z	relative intensity
15	251
16	4
17	3
18	11
27	9
28	65
32	82
33	23
34	9
35	8
44	79
45	999
46	451
47	326
48	131
49	41
50	6
61	165
62	6
63	7
64	163
65	8
66	15
76	9
77	6
78	32
79	565
80	23
81	52
93	10
94	958
95	44
96	86
97	3
98	2
