Mass spectrum: GLUTARIC ACID; EI-MS
Formula: C5H8O4
Exact mass: 132.04226
Instrument type: EI-MS
m/z	relative intensity
39	357
41	564
42	999
45	53
55	700
58	329
60	567
86	762
