Mass spectrum: 2-CHLORO-1-PHENYL-2-BUTENE; EI-MS
Formula: C10H11Cl
Exact mass: 166.05493
Instrument type: EI-MS
m/z	relative intensity
14	2
15	9
25	1
26	1
27	75
28	16
29	5
35	0
36	1
37	11
38	24
39	1
40	10
41	16
42	1
43	0
49	16
50	68
51	153
52	3
53	75
54	5
55	2
57	1
58	5
60	3
61	16
62	3
63	92
64	79
65	105
66	1
67	1
69	1
72	1
73	1
74	29
75	31
76	21
77	8
78	51
79	10
83	5
84	0
85	5
86	8
87	13
88	1
89	50
90	16
91	417
92	4
93	1
97	2
98	5
99	1
100	3
101	13
102	38
103	6
104	29
105	16
106	3
112	0
113	5
114	9
115	226
116	14
117	21
118	2
125	13
126	0
127	56
128	92
129	149
130	5
131	999
132	115
133	9
148	0
149	3
150	1
151	16
152	0
153	5
165	4
166	210
167	3
168	68
169	8
