Mass spectrum: PHENYL ACETATE; EI-MS
Formula: C8H8O2
Exact mass: 136.05243
Instrument type: EI-MS
m/z	relative intensity
14	12
15	60
27	12
37	11
38	33
39	137
40	25
42	13
43	304
50	23
51	37
55	19
62	13
63	33
64	13
65	94
66	119
77	28
93	14
94	999
95	73
136	146
137	14
