Mass spectrum: ETHYLDIFLUORO(2,4,6-TRI-TERT-BUTYLPHENYL)SILANE; EI-MS
Name: 1,3,5-TRI-TERT-BUTYL-2-(ETHYLDIFLUOROSILYL)BENZENE
Formula: C20H34F2Si
Exact mass: 340.23978
Instrument type: EI-MS
m/z	relative intensity
43	16
55	26
57	579
58	28
67	14
77	12
91	24
95	36
105	13
115	17
117	14
128	16
129	18
131	17
141	12
142	10
143	14
173	11
189	11
241	12
269	999
270	225
271	59
284	75
285	10
325	15
340	24
