Mass spectrum: BENZYL SALICYLATE; EI-MS
Formula: C14H12O3
Exact mass: 228.07864
Instrument type: EI-MS
m/z	relative intensity
17	8
18	38
26	9
27	37
28	25
29	16
37	14
38	63
39	398
40	21
41	49
50	61
51	133
52	40
53	53
54	4
55	9
61	12
62	47
63	184
64	102
65	638
66	42
67	4
74	15
75	17
76	18
77	106
78	25
79	63
80	7
81	34
89	87
90	49
91	999
92	450
93	80
94	15
105	19
106	3
107	37
108	19
109	11
120	64
121	149
122	12
181	10
182	2
210	8
211	5
228	999
229	165
230	19
