Mass spectrum: 3-OCTANONE; EI-MS
Name: ETHYL PENTYL KETONE
Formula: C8H16O
Exact mass: 128.12012
Instrument type: EI-MS
m/z	relative intensity
15	18
26	23
27	292
28	82
29	709
30	18
39	114
40	19
41	222
42	57
43	999
44	36
51	10
53	22
55	100
56	31
57	888
58	50
71	482
72	698
73	77
81	13
85	96
86	25
99	548
100	40
128	178
129	17
