Mass spectrum: ORTHO-TERT-BUTYLPHENOL; EI-MS
Formula: C10H14O
Exact mass: 150.10447
Instrument type: EI-MS
m/z	relative intensity
18	13
27	18
29	14
41	6
51	43
52	10
53	15
55	1
56	26
57	15
63	25
64	1
65	45
67	15
68	20
69	1
75	17
77	60
78	16
79	3
89	14
91	139
92	10
94	2
95	46
103	15
105	12
107	67
108	43
109	15
115	123
116	2
117	12
119	10
135	999
136	10
149	63
150	369
151	38
