Mass spectrum: TRIPHENYLENE; EI-MS
Formula: C18H12
Exact mass: 228.0939
Instrument type: EI-MS
m/z	relative intensity
75	13
87	19
88	29
99	15
100	72
101	88
102	15
112	93
113	229
114	187
115	33
200	32
201	18
202	27
223	11
224	61
225	48
226	271
227	127
228	999
229	199
230	20
