Mass spectrum: 7-METHOXY-2,3-DIMETHYL-6-NITROINDOLE; EI-MS
Formula: C11H12N2O3
Exact mass: 220.08479
Instrument type: EI-MS
m/z	relative intensity
43	30
45	175
56	51
57	3
60	120
61	60
63	55
64	2
65	19
67	28
68	29
69	3
70	46
71	14
73	48
74	1
75	15
76	24
77	110
78	11
79	18
80	11
81	100
82	3
83	70
84	28
85	83
87	1
89	42
90	17
91	20
94	2
95	36
96	16
97	51
98	2
99	20
101	15
102	23
103	7
104	31
105	14
107	12
109	2
110	17
111	22
113	13
115	3
116	22
117	13
118	11
121	2
123	16
127	11
128	14
129	4
130	78
131	92
132	23
133	1
136	13
137	24
141	10
142	3
143	28
144	23
145	14
146	2
147	25
148	11
149	25
150	1
157	10
158	79
159	147
160	7
161	15
171	14
172	34
173	999
174	147
175	115
176	15
177	3
187	66
188	20
189	43
190	2
191	11
202	18
203	720
204	8
205	12
219	20
220	620
221	52
