Mass spectrum: DIISODECYL PHTHALATE; EI-MS
Name: PHTHALIC ACID DIISODECYL ESTER
Formula: C28H46O4
Exact mass: 446.33961
Instrument type: EI-MS
m/z	relative intensity
57	78
70	78
71	267
84	88
85	277
97	58
98	70
99	91
111	53
140	49
141	372
149	999
150	110
167	305
207	136
289	45
307	586
308	158
