Mass spectrum: 2,2,5-TRICHLORO-5-METHYL-2,5-DISILAHEXANE; EI-MS
Formula: C5H13Cl3Si2
Exact mass: 233.96214
Instrument type: EI-MS
m/z	relative intensity
59	160
79	201
94	677
96	245
105	188
106	999
107	140
108	349
221	121
222	16
223	45
234	16
236	15
