Mass spectrum: PROPYL ACETATE; EI-MS
Formula: C5H10O2
Exact mass: 102.06808
Instrument type: EI-MS
m/z	relative intensity
14	10
15	65
26	12
27	88
28	12
29	43
31	37
39	39
41	73
42	89
43	999
44	20
59	44
61	254
73	121
