Mass spectrum: BUTYL 4-NITROBENZOATE; EI-MS
Formula: C11H13NO4
Exact mass: 223.08446
Instrument type: EI-MS
m/z	relative intensity
41	107
55	139
56	999
57	54
58	2
65	16
73	8
76	4
78	3
92	26
93	4
103	10
104	55
105	4
120	53
121	20
122	7
134	11
135	2
137	36
138	4
150	349
151	77
152	17
153	4
168	197
169	45
170	5
193	10
