Mass spectrum: 2-METHYL-5-(3,4,4-TRIMETHYLPENTYL)PYRIDINE; EI-MS
Formula: C14H23N
Exact mass: 205.18305
Instrument type: EI-MS
m/z	relative intensity
39	113
40	22
41	109
42	4
43	105
44	39
50	15
51	2
52	25
53	63
54	15
55	11
56	39
57	629
58	31
63	2
64	14
65	85
66	25
67	3
68	10
69	56
70	16
77	13
78	69
79	117
80	22
81	5
83	29
84	36
85	15
89	2
90	15
91	85
92	34
93	5
94	20
95	11
96	11
97	2
102	11
103	39
104	29
105	5
106	597
107	911
108	78
110	1
115	35
116	19
117	78
118	4
119	67
120	190
121	58
122	1
127	10
128	23
129	22
130	10
131	343
132	216
133	38
134	4
135	10
142	10
143	26
144	13
145	89
146	999
147	955
148	14
149	122
150	29
156	14
157	2
158	52
159	22
160	40
161	3
162	49
163	29
170	11
171	1
172	32
173	19
174	13
186	2
188	130
189	22
190	80
191	1
200	10
201	12
202	22
203	16
204	43
205	149
206	31
