Mass spectrum: TRIFLUOPROMAZINE; EI-MS
Name: 10-(3-DIMETHYLAMINO)PROPYL-2-TRIFLUOROMETHYLPHENOTHIAZINE
Formula: C18H19F3N2S
Exact mass: 352.1221
Instrument type: EI-MS
m/z	relative intensity
57	18
58	999
59	54
70	38
71	23
72	39
84	34
85	174
86	302
87	17
196	13
197	12
222	12
247	11
248	56
266	68
267	46
268	11
280	39
281	27
292	12
306	161
307	80
308	21
352	286
353	65
354	21
