Mass spectrum: N-ISOPENTYLACETAMIDE; EI-MS
Formula: C7H15NO
Exact mass: 129.11536
Instrument type: EI-MS
m/z	relative intensity
15	41
27	44
28	42
29	6
30	999
31	46
39	33
41	8
42	33
43	257
44	25
45	3
55	42
56	22
57	19
58	8
60	187
70	28
72	284
73	17
74	24
86	14
100	93
114	2
129	31
130	24
