Mass spectrum: PROPIONIC ACID; EI-MS
Formula: C3H6O2
Exact mass: 74.03678
Instrument type: EI-MS
m/z	relative intensity
14	25
15	34
25	31
26	210
27	598
28	999
29	835
30	165
31	42
42	33
43	25
44	11
45	496
46	49
47	29
53	16
55	118
56	109
57	246
73	438
74	699
75	29
