Mass spectrum: CYCLOHEXYL ACETATE; EI-MS
Name: ACETIC ACID CYCLOHEXYL ESTER
Formula: C8H14O2
Exact mass: 142.09938
Instrument type: EI-MS
m/z	relative intensity
15	21
27	45
28	14
29	31
39	60
41	134
42	29
43	999
44	34
53	15
54	201
55	165
57	80
58	65
61	69
67	674
68	30
71	30
81	80
82	671
83	88
99	30
100	33
