Mass spectrum: 2-METHYLFURAN; EI-MS
Formula: C5H6O
Exact mass: 82.04186
Instrument type: EI-MS
m/z	relative intensity
14	15
15	33
26	82
27	300
28	34
29	93
37	56
38	82
39	468
40	14
41	28
42	29
43	105
49	39
50	168
51	169
52	91
53	721
54	155
55	34
80	11
81	561
82	999
83	61
