Mass spectrum: 2,4-DINITROFLUOROBENZENE; EI-MS
Formula: C6H3FN2O4
Exact mass: 186.00768
Instrument type: EI-MS
m/z	relative intensity
44	787
46	63
50	294
51	39
52	55
61	59
62	69
63	165
64	23
68	246
73	17
74	200
75	89
76	75
79	19
81	117
82	254
83	75
90	57
92	37
93	403
94	999
95	83
96	35
98	59
99	33
107	95
109	17
110	145
124	37
125	33
126	65
140	81
156	99
170	69
186	689
187	55
