Mass spectrum: N-(TERT-BUTYL)-2-METHYLCYCLOHEXANIMINE; EI-MS
Formula: C11H21N
Exact mass: 167.1674
Instrument type: EI-MS
m/z	relative intensity
42	294
44	18
53	20
54	83
55	86
56	112
57	999
58	132
67	41
68	109
69	71
70	15
82	150
83	286
84	24
95	73
96	309
97	26
110	124
111	189
112	112
124	128
125	20
152	260
153	30
167	240
168	31
