Mass spectrum: ACRYLAMIDE; EI-MS
Name: 2-PROPENAMIDE
Formula: C3H5NO
Exact mass: 71.03711
Instrument type: EI-MS
m/z	relative intensity
16	67
17	44
25	82
26	580
27	996
28	158
29	99
30	121
37	29
38	53
39	79
40	37
41	88
42	73
43	528
44	999
45	53
50	53
51	181
52	331
53	361
54	65
55	789
56	46
57	26
70	55
71	743
72	65
