Mass spectrum: 3-METHYLENE-7,11,15-TRIMETHYL-1,6,10,14-HEXADECATETRAENE; EI-MS
Formula: C20H32
Exact mass: 272.2504
Instrument type: EI-MS
m/z	relative intensity
27	72
29	94
39	108
41	77
43	92
53	159
55	278
65	5
67	269
68	175
69	999
70	10
77	97
79	216
81	547
82	5
91	122
92	42
93	489
94	6
95	170
105	72
107	140
109	7
119	91
120	138
121	78
123	4
133	156
134	45
135	59
137	3
147	47
161	55
181	2
272	25
