Mass spectrum: 1-NAPHTHYL N-METHYLCARBAMATE; EI-MS
Formula: C12H11NO2
Exact mass: 201.07898
Instrument type: EI-MS
m/z	relative intensity
50	74
51	66
53	14
55	3
57	114
58	177
61	25
62	9
63	196
64	11
65	92
71	2
72	185
74	70
75	40
76	2
77	48
85	18
86	25
87	4
88	66
89	211
90	22
91	1
98	11
109	11
113	51
114	9
115	703
116	937
117	96
126	1
139	11
143	48
144	999
145	26
146	11
168	22
185	18
186	22
