Mass spectrum: CYCLOPENTANONE; EI-MS
Formula: C5H8O
Exact mass: 84.05751
Instrument type: EI-MS
m/z	relative intensity
15	18
26	102
27	264
28	671
29	87
37	16
38	35
39	235
40	48
41	523
42	159
43	36
50	35
51	28
53	35
55	999
56	307
57	18
83	12
84	387
85	25
