Mass spectrum: NORHALFORDIN; EI-MS
Formula: C13H10O6
Exact mass: 262.04774
Instrument type: EI-MS
m/z	relative intensity
120	30
148	40
176	380
191	380
219	460
233	40
247	200
262	999
