Mass spectrum: 1-METHOXY-EXO-3-METHYLBICYCLO(3.2.2)NON-6-EN-2-ONE; EI-MS
Formula: C11H16O2
Exact mass: 180.11503
Instrument type: EI-MS
m/z	relative intensity
44	7
45	16
58	10
67	2
77	12
79	45
80	12
81	1
82	13
91	17
92	9
93	1
94	12
95	77
96	12
97	1
98	12
107	10
108	12
109	11
110	999
111	68
121	19
122	2
123	61
124	66
152	13
178	1
180	89
181	15
