Mass spectrum: ISOAMYL BUTYRATE; EI-MS
Name: ISOPENTYL BUTYRATE
Formula: C9H18O2
Exact mass: 158.13068
Instrument type: EI-MS
m/z	relative intensity
15	18
26	10
27	176
28	38
29	97
31	12
39	85
40	16
41	240
42	142
43	775
44	27
45	22
53	13
55	331
56	21
57	19
60	32
69	53
70	999
71	811
72	39
73	21
85	17
88	27
89	162
101	34
115	50
