Mass spectrum: 3-CHLORO-2-TRIMETHYLSILOXYPROPENE; EI-MS
Formula: C6H13ClOSi
Exact mass: 164.04242
Instrument type: EI-MS
m/z	relative intensity
72	57
73	443
74	47
75	63
93	527
95	999
96	72
97	300
113	74
149	754
150	89
151	271
164	371
165	54
166	144
