Mass spectrum: 6-BEZOYLAMINOFLAVANONE; EI-MS
Name: 6-BENZAMIDO-2-PHENYLCHROMAN-4-ONE
Formula: C22H17NO3
Exact mass: 343.12084
Instrument type: EI-MS
m/z	relative intensity
32	12
39	10
41	26
43	3
44	24
45	19
50	11
51	8
55	10
57	14
69	10
76	1
77	466
78	62
103	31
104	4
105	999
106	106
134	53
149	9
239	233
240	29
343	263
344	53
