Mass spectrum: 3-HYDROXYACETOPHENONE; EI-MS
Formula: C8H8O2
Exact mass: 136.05243
Instrument type: EI-MS
m/z	relative intensity
27	12
37	11
38	35
39	154
42	10
43	158
50	31
51	33
53	31
60	11
61	14
62	33
63	85
64	44
65	276
66	26
74	17
75	11
77	31
92	29
93	501
94	54
107	14
121	999
122	83
136	634
137	62
