Mass spectrum: CINNAMIC ACID ETHYL ESTER; EI-MS
Formula: C11H12O2
Exact mass: 176.08373
Instrument type: EI-MS
m/z	relative intensity
29	26
69	14
77	94
78	22
91	29
102	49
103	348
104	160
105	22
117	14
120	16
130	42
131	999
132	126
133	17
135	12
147	110
148	161
149	19
158	26
161	12
175	41
176	541
177	67
