Mass spectrum: DIPROPYL ETHER; EI-MS
Formula: C6H14O
Exact mass: 102.10447
Instrument type: EI-MS
m/z	relative intensity
15	20
19	24
26	23
27	188
29	119
31	719
33	15
39	74
40	15
41	323
42	140
43	999
44	58
45	594
46	22
55	72
56	20
57	92
58	15
59	231
60	44
61	23
73	168
87	34
102	50
