Mass spectrum: BENZAMIDE; EI-MS
Formula: C7H7NO
Exact mass: 121.05276
Instrument type: EI-MS
m/z	relative intensity
44	13
51	38
52	10
77	469
78	63
105	999
106	78
121	860
122	75
