Mass spectrum: ETHYL LACTATE; EI-MS
Formula: C5H10O3
Exact mass: 118.06299
Instrument type: EI-MS
m/z	relative intensity
15	27
19	38
26	17
27	12
29	152
30	14
31	10
42	1
43	99
44	14
45	999
46	3
47	14
75	62
