Mass spectrum: BUTYL ACETATE; EI-MS
Formula: C6H12O2
Exact mass: 116.08373
Instrument type: EI-MS
m/z	relative intensity
18	40
19	10
26	40
27	1
41	30
43	999
55	80
56	68
57	70
58	50
61	230
70	2
71	220
85	10
