Mass spectrum: (2S)-N-CARBOBENZOXY-2-(1-OXO-4-(2'-TETRAHYDROPYRANYLOXY)BUTYL)PYRROLIDINE; EI-MS
Formula: C21H29NO5
Exact mass: 375.20457
Instrument type: EI-MS
m/z	relative intensity
91	44
160	544
204	999
205	52
375	1
