Mass spectrum: 2-(3,4-DIMETHOXYPHENYL)ETHANOIC ACID; EI-MS
Name: HOMOVERATRIC ACID
Formula: C10H12O4
Exact mass: 196.07356
Instrument type: EI-MS
m/z	relative intensity
41	8
43	23
55	13
57	3
60	8
65	34
69	29
71	4
73	8
77	31
78	8
79	3
82	5
83	8
85	23
90	1
91	23
93	3
94	5
95	1
97	10
105	29
106	23
107	8
108	23
109	8
111	16
125	1
135	23
136	5
137	8
139	1
141	999
142	60
143	5
181	2
196	461
197	36
