Mass spectrum: SUCCINIMIDE; EI-MS
Formula: C4H5NO2
Exact mass: 99.03203
Instrument type: EI-MS
m/z	relative intensity
55	29
56	867
57	29
99	999
100	89
