Mass spectrum: PARA-TOLUIDINE; EI-MS
Formula: C7H9N
Exact mass: 107.0735
Instrument type: EI-MS
m/z	relative intensity
39	55
51	51
52	59
53	8
54	50
79	120
106	999
107	645
