Mass spectrum: ACETIC ACID AMYL ESTER; EI-MS
Name: PENTYL ACETATE
Formula: C7H14O2
Exact mass: 130.09938
Instrument type: EI-MS
m/z	relative intensity
15	30
27	54
28	29
29	78
31	27
39	37
41	129
42	291
43	999
44	29
45	13
55	222
56	19
57	23
58	37
61	190
69	58
70	311
71	25
73	116
87	12
