Mass spectrum: DIMETHYLACETAL; EI-MS
Name: 1.1-DIMETHOXYETHANE
Formula: C4H10O2
Exact mass: 90.06808
Instrument type: EI-MS
m/z	relative intensity
14	20
15	198
26	19
27	57
28	43
29	287
30	12
31	380
32	12
33	14
41	18
42	22
43	209
44	11
45	16
47	106
58	27
59	999
60	34
89	23
