Mass spectrum: 2-TERT-BUTYLMERCAPTO-4,5-LUTIDINE; EI-MS
Formula: C11H17NS
Exact mass: 195.10817
Instrument type: EI-MS
m/z	relative intensity
29	50
39	60
41	70
57	6
77	50
94	70
95	180
139	999
140	120
141	50
180	10
195	1
196	14
