Mass spectrum: EPIBROMOHYDRIN; EI-MS
Name: 1-BROMO-2,3-EPOXYPROPANE
Formula: C3H5BrO
Exact mass: 135.95238
Instrument type: EI-MS
m/z	relative intensity
14	33
15	48
25	17
26	130
27	476
28	72
29	355
30	34
31	292
37	17
38	28
39	65
41	12
42	32
43	36
55	11
57	999
58	36
79	45
80	19
81	48
82	18
83	56
93	51
95	14
105	27
107	20
108	21
123	18
125	17
