Mass spectrum: PARA-PHENETIDINE; EI-MS
Name: 4-AMINOPHENETOL
Formula: C8H11NO
Exact mass: 137.08406
Instrument type: EI-MS
m/z	relative intensity
26	25
27	88
28	66
29	38
30	19
38	16
39	72
41	25
50	13
51	28
52	88
53	131
54	44
61	19
62	13
63	28
64	25
65	81
66	16
78	13
79	19
80	341
81	66
82	16
91	13
92	31
108	999
109	659
110	47
136	13
137	709
138	66
