Mass spectrum: 2-METHOXYETHANOL; EI-MS
Formula: C3H8O2
Exact mass: 76.05243
Instrument type: EI-MS
m/z	relative intensity
15	89
27	30
29	194
31	161
43	66
45	999
46	29
47	71
58	12
76	13
