Mass spectrum: CARYOPHYLLENE; EI-MS
Name: 4,11,11-TRIMETHYL-8-METHYLENEBICYCLO(7.2.0)UNDEC-4-ENE
Formula: C15H24
Exact mass: 204.1878
Instrument type: EI-MS
m/z	relative intensity
45	408
55	222
57	104
69	932
79	300
81	346
91	210
93	999
105	262
107	395
120	289
121	228
133	755
134	223
147	158
148	188
161	181
189	58
204	38
