Mass spectrum: 1-PARA-MENTHEN-3-YL ACETATE; EI-MS
Formula: C12H20O2
Exact mass: 196.14633
Instrument type: EI-MS
m/z	relative intensity
18	45
27	40
41	20
43	21
54	10
55	70
56	60
57	9
58	10
59	10
61	10
66	10
67	105
68	150
69	40
70	47
71	20
77	30
79	30
80	10
81	580
82	385
83	110
84	7
85	70
86	30
91	40
92	8
93	380
94	180
95	999
96	33
97	40
99	20
100	10
106	2
107	10
108	130
109	110
110	4
111	20
112	60
118	30
120	14
121	15
122	400
125	10
134	2
136	165
137	65
138	920
139	13
140	10
141	15
153	5
154	1
155	35
156	10
157	10
