Mass spectrum: TRANS-2-METHYLCHROMAN-4-OL; EI-MS
Formula: C10H12O2
Exact mass: 164.08373
Instrument type: EI-MS
m/z	relative intensity
91	13
94	10
95	7
104	1
105	7
107	10
117	3
118	1
119	3
120	30
121	100
122	35
123	120
124	10
129	3
130	0
131	610
132	60
133	7
144	7
145	260
146	50
147	7
148	1
163	43
164	999
165	110
166	10
