Mass spectrum: 2,3-DIMETHYLINDOLE; EI-MS
Formula: C10H11N
Exact mass: 145.08915
Instrument type: EI-MS
m/z	relative intensity
27	15
28	10
39	27
42	13
51	62
58.5	30
71.5	73
72.5	64
76	30
77	125
102	56
103	73
115	82
117	35
130	519
131	69
144	999
145	824
146	77
