Mass spectrum: BENZYLAMINE; EI-MS
Formula: C7H9N
Exact mass: 107.0735
Instrument type: EI-MS
m/z	relative intensity
27	39
28	181
29	58
30	316
31	85
39	61
45	41
50	51
51	116
52	44
52.5	21
53	29
63	33
65	55
77	199
78	123
79	403
80	36
89	35
90	18
91	180
92	16
104	40
105	16
106	999
107	618
108	81
