Mass spectrum: TRANS-DECAHYDROQUINOLINE; EI-MS
Formula: C9H17N
Exact mass: 139.1361
Instrument type: EI-MS
m/z	relative intensity
27	46
28	62
29	29
30	8
39	49
41	96
42	25
43	3
44	25
53	28
54	32
55	4
56	50
57	17
67	44
68	5
69	21
70	26
79	22
80	2
81	24
82	67
83	55
95	2
96	999
97	83
110	26
138	7
139	146
140	19
