Mass spectrum: 4-METHOXYPHENYLACETIC ACID METHYL ESTER; EI-MS
Formula: C10H12O3
Exact mass: 180.07864
Instrument type: EI-MS
m/z	relative intensity
42	124
50	58
51	262
52	15
53	36
63	51
65	94
74	8
77	430
78	408
79	36
89	10
91	255
106	43
121	562
122	44
180	999
181	102
