Mass spectrum: METHYL 2-((1E),(3E)-3-METHYL-7-OXOOCTA-1,3-DIENYL)-1,3-DIMETHYL-4-OXOCYCLOHEX-2-ENYL-1-CARBOXYLATE; EI-MS
Name: TRISPORIC ACID B METHYL ESTER
Formula: C19H26O4
Exact mass: 318.18311
Instrument type: EI-MS
m/z	relative intensity
32	118
42	202
43	999
55	30
69	110
77	133
79	142
81	1
91	230
93	238
95	105
105	17
117	107
119	181
123	108
131	2
133	184
135	129
143	120
145	20
147	166
149	193
157	171
158	1
159	327
160	231
161	235
163	10
173	337
175	134
183	244
185	18
187	211
197	292
200	147
201	33
215	364
243	117
260	199
275	25
318	931
319	217
