Mass spectrum: BENZYL IODIDE; EI-MS
Formula: C7H7I
Exact mass: 217.95924
Instrument type: EI-MS
m/z	relative intensity
50	12
51	18
62	12
63	31
64	12
65	82
89	35
90	21
91	999
92	81
127	29
218	32
