Mass spectrum: SEC-BUTYL ACETATE; EI-MS
Name: ACETIC ACID 1-METHYLPROPYL ESTER
Formula: C6H12O2
Exact mass: 116.08373
Instrument type: EI-MS
m/z	relative intensity
15	37
27	60
28	15
29	86
39	36
41	117
42	24
43	999
44	29
45	26
55	24
56	194
57	81
61	52
73	54
87	189
101	38
