Mass spectrum: CIS-MENTHONE; EI-MS
Name: CIS-5-METHYL-2-(1-METHYLETHYL)CYCLOHEXANONE
Formula: C10H18O
Exact mass: 154.13577
Instrument type: EI-MS
m/z	relative intensity
42	37
43	111
55	194
56	170
57	44
58	13
67	19
68	27
69	396
70	206
71	35
81	20
83	140
84	98
85	21
93	19
94	17
95	94
96	15
97	185
98	69
107	11
109	12
110	59
111	176
112	999
113	69
121	39
125	52
139	326
140	22
154	193
155	25
