Mass spectrum: TERT-BUTYL PROPIONATE; EI-MS
Formula: C7H14O2
Exact mass: 130.09938
Instrument type: EI-MS
m/z	relative intensity
15	15
26	18
27	88
29	260
31	67
32	18
39	33
41	142
42	17
43	47
45	37
46	12
55	17
56	119
57	999
58	38
59	33
75	46
102	14
115	84
