Mass spectrum: BUTYL PHENYL ETHER; EI-MS
Formula: C10H14O
Exact mass: 150.10447
Instrument type: EI-MS
m/z	relative intensity
26	11
27	100
28	28
29	16
37	10
38	21
39	149
40	3
41	100
50	20
51	60
53	1
55	31
56	16
57	30
63	2
64	11
65	93
66	68
77	8
79	10
93	18
94	999
95	6
107	10
150	150
151	11
