Mass spectrum: UNDECYL BENZOATE; EI-MS
Formula: C18H28O2
Exact mass: 276.20893
Instrument type: EI-MS
m/z	relative intensity
27	12
29	31
39	20
41	157
42	39
43	154
51	52
54	22
55	225
56	176
57	131
67	48
68	49
69	225
70	213
71	57
76	11
77	424
78	29
79	123
81	26
82	89
83	221
84	168
85	34
96	50
97	206
98	79
105	999
106	76
110	11
111	77
112	27
122	94
123	982
124	73
125	27
126	32
141	21
154	35
