Mass spectrum: 2-PHENYLCYCLOHEXANOL; EI-MS
Formula: C12H16O
Exact mass: 176.12012
Instrument type: EI-MS
m/z	relative intensity
27	50
29	71
39	68
41	6
43	59
51	52
57	160
65	7
67	69
71	125
77	114
78	11
79	78
80	49
84	46
85	13
91	999
92	466
93	49
98	25
103	94
104	456
105	189
115	14
116	45
117	450
118	59
120	4
128	49
129	265
130	450
131	8
132	163
133	81
143	131
158	16
176	888
177	121
