Mass spectrum: N-(12-AMINODODECYL)-2-PYRROLIDONE; EI-MS
Formula: C16H32N2O
Exact mass: 268.25146
Instrument type: EI-MS
m/z	relative intensity
27	38
28	140
29	58
30	65
31	10
32	20
39	52
40	2
41	320
42	100
43	140
44	13
45	28
53	24
54	26
55	22
56	120
57	44
58	20
59	3
65	6
66	6
67	40
68	6
69	190
70	390
71	38
72	3
73	16
79	10
80	8
81	2
82	18
83	54
84	52
85	2
86	140
87	26
95	12
96	3
97	26
98	999
99	600
100	8
101	14
109	8
110	6
111	1
112	280
113	140
114	40
115	1
124	26
125	10
126	130
127	9
128	22
129	12
138	10
139	0
140	76
141	48
142	40
143	1
149	14
152	10
153	4
154	10
155	44
156	50
157	18
158	0
168	90
169	40
170	160
171	3
181	2
182	100
183	34
184	2
185	6
194	4
195	4
196	13
197	26
198	8
209	8
210	10
211	56
212	8
222	8
223	1
224	110
225	42
226	14
227	0
238	32
239	170
240	40
241	0
251	8
252	40
253	8
267	2
268	140
269	40
270	4
