Mass spectrum: 3-ETHOXY-6-(1-TETRAHYDROPYRANOXY-5-METHYL-4-HEXENYL)-2-CYCLOHEXENONE; EI-MS
Formula: C20H32O4
Exact mass: 336.23006
Instrument type: EI-MS
m/z	relative intensity
43	16
84	94
85	107
94	1
113	12
138	17
139	37
140	8
141	17
166	96
167	67
169	8
170	35
179	21
182	26
183	2
191	13
206	13
219	12
224	1
233	28
234	150
235	45
251	2
252	999
253	129
254	19
