Mass spectrum: 4A-METHYLDECAHYDRO-2-NAPHTHOL; EI-MS
Formula: C11H20O
Exact mass: 168.15142
Instrument type: EI-MS
m/z	relative intensity
40	244
41	186
42	28
43	129
44	45
53	51
54	48
55	364
56	74
57	129
59	64
66	45
67	462
68	234
69	350
70	98
71	71
77	34
78	15
79	224
80	87
81	486
82	240
83	168
84	51
85	26
91	52
92	34
93	496
94	266
95	490
96	240
97	61
98	33
105	21
107	319
108	432
109	421
110	208
111	215
112	30
121	212
122	124
123	19
124	35
135	999
136	106
137	19
150	486
151	65
153	21
166	32
