Mass spectrum: ACRYLIC ACID 2-HYDROXYETHYL ESTER; EI-MS
Name: 2-PROPENOIC ACID 2-HYDROXYETHYL ESTER
Formula: C5H8O3
Exact mass: 116.04734
Instrument type: EI-MS
m/z	relative intensity
15	25
26	47
27	331
28	26
29	49
31	93
42	14
43	45
44	67
45	48
55	999
56	42
57	11
58	46
73	170
85	77
86	149
