Mass spectrum: 1-NAPHTHYL ACETATE; EI-MS
Formula: C12H10O2
Exact mass: 186.06808
Instrument type: EI-MS
m/z	relative intensity
15	39
39	15
43	136
63	41
89	49
114	22
115	302
116	164
144	999
145	119
186	151
187	20
