Mass spectrum: ETHYL 3-OXOBUTANOATE; EI-MS
Formula: C6H10O3
Exact mass: 130.06299
Instrument type: EI-MS
m/z	relative intensity
27	17
28	10
29	185
31	38
42	42
43	999
44	24
45	56
46	13
56	10
58	58
60	127
61	67
69	50
70	29
73	26
84	65
85	217
86	15
87	49
88	340
89	18
102	59
115	32
130	159
131	13
