Mass spectrum: 1-PHENYL-3-METHOXY-1,5-HEXADIENE; EI-MS
Formula: C13H16O
Exact mass: 188.12012
Instrument type: EI-MS
m/z	relative intensity
41	124
45	79
50	30
51	95
55	103
63	45
65	42
76	29
77	163
78	80
79	30
91	283
102	35
103	103
104	58
105	39
115	530
116	72
117	83
128	45
129	44
131	89
132	29
133	110
141	28
147	999
148	111
156	31
160	323
161	161
162	202
169	108
170	108
171	242
172	135
173	525
174	94
185	121
186	135
187	807
188	417
