Mass spectrum: 2-AMINO-DIPYRIDO(1,2-A:3',2'-D)IMIDAZOLE; EI-MS
Name: GLU-P-2
Formula: C10H8N4
Exact mass: 184.0749
Instrument type: EI-MS
m/z	relative intensity
41	39
43	13
44	13
50	41
51	179
52	213
53	66
54	21
62	13
63	31
64	59
65	29
66	23
67	17
75	11
76	25
77	45
78	455
79	999
80	69
91	18
92	158
102	10
103	13
104	28
105	30
119	15
129	2
130	14
131	33
143	14
144	212
145	25
156	100
157	124
158	33
183	70
184	930
185	121
