Mass spectrum: 1-TETRADECYL-2,3-DITRIMETHYLSILYLGLYCEROL; EI-MS
Formula: C23H52O3Si2
Exact mass: 432.3455
Instrument type: EI-MS
m/z	relative intensity
83	10
97	17
103	39
111	10
116	53
117	229
118	24
119	2
129	75
130	218
131	136
132	3
133	278
134	29
135	1
148	37
149	3
177	3
207	87
208	13
252	2
285	82
286	2
327	12
328	20
329	2
418	14
419	5
