Mass spectrum: THYMINE; EI-MS
Name: 5-METHYLURACIL
Formula: C5H6N2O2
Exact mass: 126.04293
Instrument type: EI-MS
m/z	relative intensity
18	12
26	47
27	101
28	286
29	24
38	19
39	54
40	30
42	19
43	45
44	37
51	18
52	70
53	41
54	240
55	629
56	46
70	25
71	22
82	66
83	93
84	15
97	12
126	999
127	83
