Mass spectrum: 1,4-BUTANEDIOL; EI-MS
Formula: C4H10O2
Exact mass: 90.06808
Instrument type: EI-MS
m/z	relative intensity
27	53
28	11
29	56
31	514
32	11
33	10
39	21
40	34
41	253
42	999
43	160
44	880
45	41
53	12
54	11
55	20
57	187
58	12
59	10
60	43
62	30
72	77
73	14
90	1
