Mass spectrum: ISOBUTYL METHYL SULFIDE; EI-MS
Formula: C5H12S
Exact mass: 104.06597
Instrument type: EI-MS
m/z	relative intensity
15	48
27	182
28	23
29	150
35	64
38	19
39	221
40	23
41	434
42	23
43	99
45	169
46	113
47	185
48	44
49	44
53	18
55	87
56	456
57	234
58	14
59	21
61	999
62	211
63	53
71	14
73	16
75	68
89	46
104	470
105	30
106	17
