Mass spectrum: 1-TRIMETHYLSILOXYOCTANE; EI-MS
Formula: C11H26OSi
Exact mass: 202.17529
Instrument type: EI-MS
m/z	relative intensity
42	310
43	104
44	365
55	298
56	187
57	426
69	467
70	154
71	180
73	506
75	954
84	93
85	99
89	216
103	299
187	999
188	169
202	9
