Mass spectrum: DODECANE; EI-MS
Formula: C12H26
Exact mass: 170.20345
Instrument type: EI-MS
m/z	relative intensity
40	87
41	480
42	137
43	999
44	54
53	17
54	14
55	13
56	137
57	822
58	34
67	1
68	6
69	43
70	80
71	36
72	20
82	5
83	17
84	5
85	166
86	17
97	7
98	3
99	26
112	14
113	15
126	1
127	10
141	5
170	11
171	1
