Mass spectrum: 3-HEXYL PROPIONATE; EI-MS
Name: 1-ETHYLBUTYL PROPIONATE
Formula: C9H18O2
Exact mass: 158.13068
Instrument type: EI-MS
m/z	relative intensity
27	90
28	46
29	238
31	13
39	32
41	86
42	39
43	159
44	15
55	68
56	65
57	999
58	38
59	12
69	30
71	19
75	31
84	72
85	57
115	67
129	43
