Mass spectrum: 5-CYCLOHEXADECENONE; EI-MS
Formula: C16H28O
Exact mass: 236.21402
Instrument type: EI-MS
m/z	relative intensity
15	11
27	171
29	249
31	11
39	220
41	999
42	162
43	352
51	19
52	18
53	162
54	383
55	803
56	91
57	78
58	151
59	38
65	45
66	48
67	587
68	443
69	233
70	72
71	262
72	22
77	47
78	24
79	166
80	172
81	452
82	312
83	180
84	204
85	51
91	41
92	26
93	95
94	123
95	318
96	179
97	226
98	142
99	28
105	21
106	14
107	65
108	88
109	132
110	86
111	106
112	45
113	14
119	24
120	17
121	79
122	70
123	84
124	55
125	53
126	19
133	28
134	20
135	69
136	42
137	53
138	25
139	26
140	14
147	26
148	15
149	35
150	19
151	31
152	28
153	13
154	15
161	21
163	14
164	12
165	30
175	19
176	12
178	24
179	17
189	14
193	24
194	11
207	22
236	306
237	50
