Mass spectrum: 2-(2-AMINO-2-METHYLPROPYL)-3-(3-METHYL-1,2,5,6-TETRAHYDRO-4-PYRIDYL)INDOLE; EI-MS
Formula: C18H25N3
Exact mass: 283.20485
Instrument type: EI-MS
m/z	relative intensity
58	999
77	12
105	21
115	1
128	12
130	53
144	60
167	8
168	65
180	84
181	76
182	16
183	66
196	134
197	878
198	14
211	30
225	86
226	590
227	11
283	160
