Mass spectrum: PHENSUXIMIDE; EI-MS
Name: 1-METHYL-3-PHENYL-2,5-PYRROLIDINEDIONE
Formula: C11H11NO2
Exact mass: 189.07898
Instrument type: EI-MS
m/z	relative intensity
51	120
52	40
55	18
56	13
57	18
63	25
65	11
69	10
71	13
76	18
77	95
78	116
79	12
89	12
91	11
102	48
103	114
104	999
105	95
187	13
189	272
190	35
