Mass spectrum: (Z)-3,7-DIMETHYL-2,6-OCTADIENAL; EI-MS
Name: NERAL
Formula: C10H16O
Exact mass: 152.12012
Instrument type: EI-MS
m/z	relative intensity
29	17
39	11
41	522
42	2
43	83
44	26
53	31
54	2
55	69
56	52
57	15
58	1
59	201
67	104
68	51
69	999
70	91
71	33
72	19
77	1
79	47
80	71
81	15
82	18
92	26
93	42
94	342
95	17
96	74
97	51
108	11
109	8
110	15
119	20
123	55
134	1
137	50
152	79
