Mass spectrum: CIS-1,2-CYCLOHEXANEDIOL; EI-MS
Formula: C6H12O2
Exact mass: 116.08373
Instrument type: EI-MS
m/z	relative intensity
41	621
42	598
55	630
57	89
69	443
70	999
83	382
98	54
116	171
