Mass spectrum: ADIPONITRILE; EI-MS
Name: HEXANEDINITRILE
Formula: C6H8N2
Exact mass: 108.06875
Instrument type: EI-MS
m/z	relative intensity
15	32
26	66
27	195
28	109
37	30
38	41
39	195
40	86
41	999
42	63
50	17
51	41
52	94
53	53
54	680
55	383
56	17
64	29
66	57
67	35
68	830
69	40
80	24
107	10
