Mass spectrum: QUINOLINE; EI-MS
Formula: C9H7N
Exact mass: 129.05785
Instrument type: EI-MS
m/z	relative intensity
32	117
37	37
38	68
39	132
40	17
43	16
44	65
49	36
50	259
51	482
52	102
53	15
61	24
62	47
63	101
64	96
65	32
73	15
74	103
75	178
76	230
77	87
78	69
79	19
87	11
98	11
99	10
100	16
101	106
102	424
103	109
106	10
127	12
128	200
129	999
130	106
