Mass spectrum: 2-HEXANOL; EI-MS
Name: SEC-HEXYL ALCOHOL
Formula: C6H14O
Exact mass: 102.10447
Instrument type: EI-MS
m/z	relative intensity
15	22
19	17
27	86
29	5
31	21
39	68
40	11
41	16
42	45
43	183
44	71
45	999
46	22
55	18
56	54
57	5
69	164
84	56
87	63
