Mass spectrum: ISOQUINOLINE; EI-MS
Formula: C9H7N
Exact mass: 129.05785
Instrument type: EI-MS
m/z	relative intensity
32	56
37	34
38	64
39	105
40	11
43	15
44	29
49	43
50	259
51	527
52	95
53	11
61	28
62	53
63	101
64	69
65	22
73	17
74	121
75	188
76	212
77	95
78	66
79	12
87	12
89	15
98	16
99	11
100	17
101	113
102	458
103	116
127	12
128	201
129	999
130	105
