Mass spectrum: METHYLPROPYLSILANE; EI-MS
Formula: C4H12Si
Exact mass: 88.07083
Instrument type: EI-MS
m/z	relative intensity
28	26
31	11
41	36
42	16
43	94
44	614
45	999
46	7
47	32
58	409
59	523
60	4
61	17
70	17
71	65
72	10
73	496
74	41
75	17
85	2
86	578
87	245
88	236
89	25
