Mass spectrum: 3-CHLORO-2-METHYLPROPENE; EI-MS
Formula: C4H7Cl
Exact mass: 90.02363
Instrument type: EI-MS
m/z	relative intensity
42	13
43	101
44	10
45	92
49	34
50	38
51	40
52	14
53	152
54	250
55	999
56	47
58	44
59	122
62	57
64	20
74	78
75	129
77	42
89	13
90	475
91	27
92	157
