Mass spectrum: ETHYL TERT-BUTYL ETHER; EI-MS
Formula: C6H14O
Exact mass: 102.10447
Instrument type: EI-MS
m/z	relative intensity
15	79
27	116
29	204
41	20
43	116
57	365
59	999
87	385
