Mass spectrum: 4-TERT-BUTYLPHENYL METHYL KETONE; EI-MS
Name: 4-TERT-BUTYLACETOPHENONE
Formula: C12H16O
Exact mass: 176.12012
Instrument type: EI-MS
m/z	relative intensity
27	62
29	48
39	94
41	10
42	17
43	776
44	22
50	4
51	77
52	16
53	18
55	1
57	28
63	46
64	15
65	6
72	10
74	16
75	24
76	4
77	120
78	38
79	21
89	4
90	60
91	174
92	17
93	1
102	38
103	70
104	21
105	14
106	12
115	132
116	33
117	10
118	127
119	38
131	17
133	12
134	17
145	24
146	35
147	1
161	999
162	127
166	291
167	47
