Mass spectrum: DIBROMOMETHANE; EI-MS
Formula: CH2Br2
Exact mass: 171.85233
Instrument type: EI-MS
m/z	relative intensity
79	73
80	12
81	75
82	11
87	13
91	84
92	37
93	746
94	43
95	652
158	10
160	20
162	10
172	520
173	19
174	999
175	18
176	488
