Mass spectrum: 1,1,2,2,-TETRACHLOROETHANE; EI-MS
Formula: C2H2Cl4
Exact mass: 165.89106
Instrument type: EI-MS
m/z	relative intensity
35	84
36	26
37	28
45	2
47	54
48	41
49	25
60	14
61	119
62	46
63	38
83	999
85	663
87	98
95	156
96	11
97	108
98	60
130	26
131	9
132	29
133	84
135	26
166	8
168	99
170	41
