Mass spectrum: 3,5-DIPHENYL-2,4,7-OCTANETRIONE (1,1,1-D3); EI-MS
Formula: C20H20O3
Exact mass: 308.14124
Instrument type: EI-MS
m/z	relative intensity
27	19
28	230
29	20
30	30
32	68
39	29
41	21
43	446
44	22
45	64
46	138
51	308
52	11
55	22
56	24
57	135
58	297
59	13
63	25
65	20
69	13
77	69
78	36
79	30
80	16
81	24
82	15
83	11
89	36
90	34
91	53
92	27
93	24
94	10
102	19
103	40
104	32
105	73
106	22
107	23
108	36
115	24
116	15
117	31
118	49
119	33
127	11
128	13
129	13
131	18
133	18
134	16
135	82
136	230
137	40
138	7
147	36
148	21
149	13
161	17
162	47
163	365
164	999
165	135
166	17
174	16
175	23
176	11
178	24
189	12
190	11
202	16
203	15
204	13
205	21
206	12
207	11
224	10
233	7
247	127
248	60
249	34
250	34
251	16
265	7
267	11
268	17
275	8
276	9
291	15
292	91
293	230
294	44
295	8
309	4
310	34
311	74
312	19
313	3
