Mass spectrum: 3,5,5-TRIMETHYL-6-METHOXYCARBONYL-2-CYCLOHEXENONE; EI-MS
Formula: C11H16O3
Exact mass: 196.10994
Instrument type: EI-MS
m/z	relative intensity
41	23
44	54
51	16
53	55
54	123
55	26
59	21
67	14
77	25
79	22
82	999
83	143
93	34
108	29
109	25
122	37
123	16
136	31
137	70
138	71
149	173
150	19
164	63
165	50
181	49
196	140
197	17
