Mass spectrum: ETHOTOIN; EI-MS
Name: 3-ETHYL-5-PHENYL-2,4-IMIDAZOLIDINEDIONE
Formula: C11H12N2O2
Exact mass: 204.08988
Instrument type: EI-MS
m/z	relative intensity
51	55
52	135
53	47
56	46
62	11
63	33
64	12
70	80
72	168
75	13
76	47
77	268
78	182
79	25
89	47
90	35
91	34
103	133
104	950
105	999
106	97
118	38
133	230
134	20
161	33
175	16
176	38
202	35
204	716
205	92
