Mass spectrum: METHYL LACTATE; EI-MS
Formula: C4H8O3
Exact mass: 104.04734
Instrument type: EI-MS
m/z	relative intensity
14	11
15	96
19	27
26	16
27	83
29	136
30	20
31	18
33	149
42	21
43	143
44	19
45	999
46	23
55	12
59	26
61	28
89	10
