Mass spectrum: 4-(PENTAMETHYLDISILANYL)PHENYLTRIMETHYLSILYLMETHANOL; EI-MS
Formula: C15H30OSi3
Exact mass: 310.16045
Instrument type: EI-MS
m/z	relative intensity
59	12
73	999
74	87
75	51
131	68
132	11
133	33
145	12
147	131
148	25
149	16
161	14
163	29
177	12
193	125
194	25
195	12
207	18
219	13
221	61
222	14
236	57
237	16
309	994
310	319
311	152
312	33
313	8
