Mass spectrum: DI-N-BUTYLAMINE; EI-MS
Formula: C8H19N
Exact mass: 129.15175
Instrument type: EI-MS
m/z	relative intensity
15	13
27	81
28	64
29	192
30	490
39	40
41	135
42	43
43	48
44	439
45	12
55	26
56	38
57	129
70	12
72	22
84	14
86	999
87	62
128	16
129	115
130	10
