Mass spectrum: TRIPHENYLPHOSPHINE OXIDE; EI-MS
Formula: C18H15OP
Exact mass: 278.08605
Instrument type: EI-MS
m/z	relative intensity
28	134
32	30
39	9
40	0
47	34
50	13
51	75
77	3
78	19
95	13
107	156
115	1
127	9
133	14
151	11
152	6
153	34
154	36
170	16
183	3
185	81
199	123
201	167
277	999
278	567
