Mass spectrum: 3,6-DIMETHYL-2,5-PIPERAZINEDIONE; EI-MS
Name: CYCLOALANYLALANINE
Formula: C6H10N2O2
Exact mass: 142.07423
Instrument type: EI-MS
m/z	relative intensity
28	57
42	38
43	77
44	999
45	26
56	93
71	147
99	48
100	30
114	31
142	117
143	11
