Mass spectrum: 4-METHYL-2-PENTENOIC ACID METHYL ESTER; EI-MS
Formula: C7H12O2
Exact mass: 128.08373
Instrument type: EI-MS
m/z	relative intensity
38	66
39	14
40	999
41	6
43	140
45	14
50	21
51	5
52	17
53	203
54	45
55	15
56	21
57	24
59	133
65	2
67	154
68	192
69	719
70	4
71	49
73	424
74	24
81	24
82	31
85	80
86	17
87	9
95	98
96	210
97	554
98	4
113	245
114	14
127	14
128	58
129	45
