Mass spectrum: RESORCINOL DIMETHYL ETHER; EI-MS
Name: 1,3-DIMETHOXYBENZENE
Formula: C8H10O2
Exact mass: 138.06808
Instrument type: EI-MS
m/z	relative intensity
39	25
41	86
45	22
52	4
57	22
64	14
65	128
66	1
67	26
77	59
78	235
79	7
80	51
92	30
93	61
94	3
95	184
96	12
105	12
107	4
108	163
109	283
123	11
137	2
138	999
139	86
