Mass spectrum: ALLYL 2,4-HEXADIENOATE; EI-MS
Name: ALLYL SORBATE
Formula: C9H12O2
Exact mass: 152.08373
Instrument type: EI-MS
m/z	relative intensity
26	24
27	120
29	38
37	1
38	64
39	562
41	824
42	3
43	118
50	18
51	48
52	2
53	27
54	10
55	91
57	2
62	12
63	27
65	161
66	12
67	707
68	211
69	30
77	2
79	89
80	26
81	49
82	2
83	66
84	16
85	10
91	3
93	72
94	21
95	999
96	9
97	64
107	75
109	14
110	1
111	62
123	13
137	137
138	1
152	270
153	23
