Mass spectrum: 1,1-DICHLORO-1-TRIMETHYLSILYL-2-HEPTANOL; EI-MS
Formula: C10H22Cl2OSi
Exact mass: 256.0817
Instrument type: EI-MS
m/z	relative intensity
42	113
43	76
45	101
55	104
57	156
68	116
70	309
73	999
74	87
75	544
76	45
83	239
91	119
93	322
95	257
99	51
143	52
149	112
163	90
173	37
177	13
220	21
