Mass spectrum: ACETONITRILE; EI-MS
Formula: C2H3N
Exact mass: 41.02655
Instrument type: EI-MS
m/z	relative intensity
14	38
15	10
28	21
38	10
39	96
40	389
41	999
42	27
