Mass spectrum: METHYL 2-HYDROXYUNDEC-10-ENOATE; EI-MS
Formula: C12H22O3
Exact mass: 214.15689
Instrument type: EI-MS
m/z	relative intensity
15	99
28	198
29	344
41	88
43	392
55	876
57	407
67	61
69	678
81	845
83	208
90	61
95	999
96	53
110	135
113	14
122	68
127	78
136	156
137	33
155	428
156	63
164	47
171	2
182	63
186	26
196	31
197	1
214	52
215	10
