Mass spectrum: 2,3-BIS(TRIMETHYLSILYL)OXY-BENZOIC ACID TRIMETHYLSILYL ESTER; EI-MS
Name: TRIMETHYLSILYL 2,3-BIS(TRIMETHYLSILOXY)BENZOATE
Formula: C16H30O4Si3
Exact mass: 370.14519
Instrument type: EI-MS
m/z	relative intensity
44	24
45	250
47	118
49	9
73	999
74	100
75	222
77	32
78	83
147	111
193	250
355	38
356	118
