Mass spectrum: P-CHLOROTOLUENE; EI-MS
Name: 4-CHLOROTOLUENE
Formula: C7H7Cl
Exact mass: 126.02363
Instrument type: EI-MS
m/z	relative intensity
27	13
37	14
38	23
39	86
41	10
43	21
44	21
44.5	18
45	70
50	50
51	43
61	21
62	44
63	108
64	21
65	81
73	28
74	16
75	21
86	11
87	10
89	90
90	32
91	999
92	80
99	26
125	170
126	403
127	80
128	128
129	11
