Mass spectrum: 2-CYCLOPENTEN-1-ONE; EI-MS
Formula: C5H6O
Exact mass: 82.04186
Instrument type: EI-MS
m/z	relative intensity
26	36
27	129
28	227
39	59
40	26
41	11
42	15
51	2
52	30
53	313
54	492
55	12
56	68
81	131
82	999
83	6
84	12
