Mass spectrum: 8ALPHA-(1-METHOXY-1-METHYL-3-BUTENYL)-6,6-DIMETHYL-1ALPHA,5ALPHA-BICYCLO(3.3.0)OCTAN-2-ONE ETHYLENE ACETAL; EI-MS
Name: 2,2-ETHYLENEDIOXY-8ALPHA-(1-METHOXY-1-METHYL-3-BUTENYL)-6,6-DIMETHYL-1ALPHA,5ALPHA-BICYCLO(3.3.0)OCTANE
Formula: C18H30O3
Exact mass: 294.21949
Instrument type: EI-MS
m/z	relative intensity
98	64
99	404
100	56
191	15
192	31
209	49
239	30
247	2
253	999
254	115
262	49
263	3
294	25
