Mass spectrum: ETHYL 4-CYANO-3,5-DIMETHYLBENZOATE; EI-MS
Formula: C12H13NO2
Exact mass: 203.09463
Instrument type: EI-MS
m/z	relative intensity
26	10
27	62
29	70
39	3
40	17
43	10
44	54
45	5
51	27
52	12
53	12
63	2
64	12
65	13
76	17
77	14
78	24
89	13
91	12
101	2
102	53
103	167
104	66
116	4
128	42
129	33
130	252
131	9
144	20
157	16
158	999
159	16
160	20
174	10
175	545
176	6
185	17
188	130
189	15
202	1
203	420
204	60
