Mass spectrum: BETA-METHOXYETHYLHYDRAZINE; EI-MS
Formula: C3H10N2O
Exact mass: 90.07931
Instrument type: EI-MS
m/z	relative intensity
26	7
27	30
28	65
29	5
30	48
31	79
32	16
33	1
40	6
41	14
42	26
43	4
44	21
45	999
46	25
57	2
58	14
59	12
69	3
73	0
90	110
91	9
