Mass spectrum: BUTYRONITRILE; EI-MS
Formula: C4H7N
Exact mass: 69.05785
Instrument type: EI-MS
m/z	relative intensity
27	143
28	23
29	570
30	14
39	17
41	999
42	37
54	13
68	10
