Mass spectrum: GAMMA-CADINENE; EI-MS
Formula: C15H24
Exact mass: 204.1878
Instrument type: EI-MS
m/z	relative intensity
26	5
27	70
29	55
39	8
40	11
41	260
42	13
43	8
50	5
51	23
52	13
53	1
54	8
55	133
56	11
57	1
63	8
64	5
65	53
66	0
67	106
68	15
69	105
70	0
75	5
77	153
78	43
79	2
80	38
81	210
82	20
83	0
89	8
90	5
91	280
92	16
93	285
94	85
95	58
96	1
102	5
103	21
104	20
105	35
106	72
107	100
108	21
109	2
110	5
115	30
116	15
117	5
118	20
119	260
120	111
121	8
122	20
123	8
127	11
128	2
129	17
130	8
131	28
132	1
133	171
134	105
135	92
136	4
141	5
143	5
145	20
146	0
147	40
148	58
149	15
150	2
159	11
160	30
161	999
162	2
163	13
175	10
176	22
189	4
190	6
204	213
205	38
