Mass spectrum: 2-OCTYLFURAN; EI-MS
Formula: C12H20O
Exact mass: 180.15142
Instrument type: EI-MS
m/z	relative intensity
29	33
39	10
41	63
43	98
53	62
54	19
55	43
57	91
67	66
68	59
69	29
79	17
80	44
81	999
82	569
83	55
84	11
94	38
95	373
96	97
109	35
110	10
123	127
124	49
136	27
137	63
151	22
180	166
181	10
