Mass spectrum: 3,7-BIS(BROMOMETHYL)TROPOLONE; EI-MS
Formula: C9H8Br2O2
Exact mass: 305.8891
Instrument type: EI-MS
m/z	relative intensity
65	175
79	35
80	85
81	3
82	90
89	45
90	40
91	58
92	60
119	999
120	90
148	47
149	70
198	50
200	40
227	21
228	35
229	215
230	20
306	4
308	70
310	30
