Mass spectrum: 1-PENTANOL; EI-MS
Formula: C5H12O
Exact mass: 88.08882
Instrument type: EI-MS
m/z	relative intensity
27	80
28	50
29	322
30	11
31	374
39	44
40	16
41	502
42	999
43	228
44	27
45	48
53	12
54	14
55	744
56	162
57	230
58	21
59	10
60	12
69	81
70	573
71	92
87	8
