Mass spectrum: GLYCEROL TRIPROPIONATE; EI-MS
Formula: C12H20O6
Exact mass: 260.12599
Instrument type: EI-MS
m/z	relative intensity
27	67
28	27
29	284
56	14
57	999
58	34
129	18
130	10
173	35
