Mass spectrum: 2-PHENYLPROPIONALDEHYDE; EI-MS
Name: HYDRATROPALDEHYDE
Formula: C9H10O
Exact mass: 134.07316
Instrument type: EI-MS
m/z	relative intensity
27	54
29	43
39	57
50	43
51	118
52	24
53	15
62	15
63	36
65	25
74	15
75	13
76	11
77	223
78	53
79	184
89	17
91	88
102	13
103	108
104	32
105	999
106	103
134	100
