Mass spectrum: SERICENINE; EI-MS
Formula: C16H20O3
Exact mass: 260.14124
Instrument type: EI-MS
m/z	relative intensity
67	1
77	28
78	1
79	0
91	19
93	15
95	13
105	3
108	999
109	72
110	14
117	1
119	22
121	19
131	1
133	4
134	11
135	27
143	13
145	4
146	11
147	19
148	6
149	0
157	10
159	17
160	11
161	5
171	11
172	1
173	14
185	1
191	1
192	66
193	1
200	2
201	35
202	11
205	17
228	1
229	17
260	164
261	27
