Mass spectrum: 1,2-BIS(TRIMETHYLSILYL)ETHANE; EI-MS
Formula: C8H22Si2
Exact mass: 174.126
Instrument type: EI-MS
m/z	relative intensity
43	28
44	19
45	98
58	80
59	63
72	18
73	999
74	94
75	34
85	146
86	243
87	32
99	26
131	76
132	14
157	35
159	121
160	24
172	17
174	77
175	16
