Mass spectrum: METHYL BUTYRATE; EI-MS
Name: BUTANOIC ACID METHYL ESTER
Formula: C5H10O2
Exact mass: 102.06808
Instrument type: EI-MS
m/z	relative intensity
15	167
26	24
27	226
28	36
29	76
31	35
33	13
38	17
39	118
40	20
41	291
42	143
43	999
44	50
45	37
55	88
57	11
59	243
69	17
70	11
71	652
72	30
74	819
75	30
77	10
87	202
88	10
101	10
102	19
