Mass spectrum: CYCLOHEXYL PROPIONATE; EI-MS
Formula: C9H16O2
Exact mass: 156.11503
Instrument type: EI-MS
m/z	relative intensity
26	16
27	196
28	43
29	443
39	117
40	15
41	221
42	48
43	37
44	20
53	39
54	149
55	284
56	42
57	999
58	35
67	420
68	20
72	46
74	17
75	266
79	12
81	103
82	641
83	252
84	14
99	34
113	16
127	12
