Mass spectrum: DI-N-OCTYL PHTHALATE; EI-MS
Formula: C24H38O4
Exact mass: 390.27701
Instrument type: EI-MS
m/z	relative intensity
43	188
50	10
53	10
54	126
55	88
56	159
65	12
67	1
68	20
69	68
70	83
71	10
76	20
77	13
82	16
83	6
84	59
85	15
93	12
97	1
104	21
105	18
112	56
113	3
121	12
122	12
123	18
145	2
149	999
150	122
151	12
163	1
167	39
261	86
262	31
279	41
280	74
281	10
390	53
391	31
