Mass spectrum: 4-OCTYLCYCLOHEXANONE; EI-MS
Formula: C14H26O
Exact mass: 210.19837
Instrument type: EI-MS
m/z	relative intensity
27	60
28	63
29	120
39	78
41	377
42	32
43	127
53	40
54	19
55	230
56	54
57	999
58	39
67	44
68	24
69	115
70	41
71	19
79	22
81	30
83	179
84	18
93	19
95	25
97	83
98	392
99	39
112	26
113	73
121	25
139	92
140	11
