Mass spectrum: 3,4-DIHYDRO-2H-PYRAN; EI-MS
Formula: C5H8O
Exact mass: 84.05751
Instrument type: EI-MS
m/z	relative intensity
29	257
30	12
31	34
37	17
38	34
39	320
40	28
41	250
42	34
43	58
44	11
45	21
49	12
50	70
51	76
52	25
53	161
54	270
55	999
56	321
57	110
65	13
66	15
69	136
81	11
83	353
84	776
85	37
