Mass spectrum: PENTYL PHENYLACETATE; EI-MS
Name: AMYL PHENYLACETATE
Formula: C13H18O2
Exact mass: 206.13068
Instrument type: EI-MS
m/z	relative intensity
27	89
29	157
39	111
41	186
42	58
43	924
44	23
51	25
55	86
63	43
64	13
65	174
69	14
70	42
71	138
89	49
90	39
91	999
92	311
93	18
115	69
119	24
136	232
137	80
206	32
