Mass spectrum: 4-DECANOL; EI-MS
Formula: C10H22O
Exact mass: 158.16707
Instrument type: EI-MS
m/z	relative intensity
27	120
29	136
31	78
39	60
41	212
42	35
43	288
44	58
45	26
53	13
55	999
56	70
57	80
58	15
69	102
70	28
71	19
72	58
73	559
74	23
97	419
98	27
115	168
140	21
