Mass spectrum: N,N'-DICHLOROFORMYL-2,2'-BIPYRROLIDINE; EI-MS
Formula: C10H14Cl2N2O2
Exact mass: 264.04323
Instrument type: EI-MS
m/z	relative intensity
70	11
131	16
132	933
133	167
134	999
135	11
165	11
185	44
193	25
229	261
264	25
265	9
266	22
