Mass spectrum: SEC-BUTYL ACETATE; EI-MS
Formula: C6H12O2
Exact mass: 116.08373
Instrument type: EI-MS
m/z	relative intensity
15	49
27	54
28	23
29	86
31	11
39	31
41	115
42	17
43	999
44	27
45	33
55	24
56	204
57	66
61	46
72	12
73	55
87	166
101	32
116	6
