Mass spectrum: 2-METHYLHEXANOIC ACID; EI-MS
Formula: C7H14O2
Exact mass: 130.09938
Instrument type: EI-MS
m/z	relative intensity
15	12
26	14
27	195
28	29
29	166
30	20
31	12
39	119
40	18
41	249
42	41
43	284
45	72
53	18
55	98
56	49
57	53
59	21
69	23
70	13
73	124
74	999
75	28
85	22
87	222
88	13
101	26
