Mass spectrum: 5-NITRO-3-PHENYLINDOLE; EI-MS
Formula: C14H10N2O2
Exact mass: 238.07423
Instrument type: EI-MS
m/z	relative intensity
41	260
42	37
43	427
44	49
45	361
51	18
53	12
54	2
55	334
56	87
57	494
60	8
61	16
63	16
64	16
67	7
68	38
69	281
76	65
71	21
74	80
77	36
78	11
79	2
80	10
81	93
82	87
83	18
84	63
85	113
87	19
89	1
91	12
93	13
95	61
96	7
97	133
98	45
99	22
105	1
106	12
107	107
108	10
109	3
110	19
111	57
112	11
113	2
115	21
119	19
121	10
123	2
125	18
127	15
129	20
136	7
137	16
138	12
139	26
149	2
151	10
152	19
153	10
163	10
164	113
165	607
166	48
180	3
181	210
190	39
191	107
192	31
193	24
208	27
236	10
237	2
238	999
239	107
