Mass spectrum: PHENOL; EI-MS
Formula: C6H6O
Exact mass: 94.04186
Instrument type: EI-MS
m/z	relative intensity
26	14
27	23
29	16
37	26
38	49
39	180
40	78
47	26
50	39
51	39
53	24
55	60
61	17
62	26
63	47
64	20
65	199
66	275
67	16
68	11
74	15
93	17
94	999
95	58
