Mass spectrum: ALPHA-PHENYLBUTYRIC ACID TRIMETHYLSILYL ESTER; EI-MS
Name: TRIMETHYLSILYL 2-PHENYLBUTYRATE
Formula: C13H20O2Si
Exact mass: 236.12326
Instrument type: EI-MS
m/z	relative intensity
44	15
45	82
47	41
51	2
61	25
65	21
72	19
73	999
74	131
75	344
76	27
77	7
78	21
89	21
90	23
91	14
103	21
105	21
115	25
117	6
118	293
119	41
192	84
221	72
