Mass spectrum: PARA-MENTHANE (2,2-D2); EI-MS
Name: 1-METHYL-4-(1-METHYLETHYL)CYCLOHEXANE (2,2-D2)
Formula: C10H20
Exact mass: 140.1565
Instrument type: EI-MS
m/z	relative intensity
41	13
42	17
43	44
44	13
55	165
56	389
57	259
58	28
68	18
69	58
70	88
71	78
72	12
81	17
82	67
83	199
84	43
85	58
97	61
98	652
99	999
100	126
101	17
142	121
143	18
