Mass spectrum: 1-PARA-MENTHEN-3-YL ACETATE; EI-MS
Formula: C12H20O2
Exact mass: 196.14633
Instrument type: EI-MS
m/z	relative intensity
15	45
17	10
18	50
27	18
28	110
29	140
31	20
40	15
41	30
42	500
43	60
44	88
45	40
46	20
51	30
52	1
53	110
54	70
55	390
56	12
58	20
59	20
61	10
63	1
65	40
67	5
68	230
69	14
70	320
71	70
72	530
73	4
77	140
78	130
79	110
80	64
81	350
82	150
83	80
84	8
85	30
91	120
92	80
93	45
94	160
95	999
96	300
97	6
99	30
100	5
105	10
106	2
108	100
109	80
110	40
111	2
112	50
118	30
120	120
122	34
123	30
128	640
136	90
137	4
138	640
139	90
140	5
141	2
154	5
155	5
156	25
157	1
158	15
57	180
