Mass spectrum: 4,5,6,7-TETRAHYDRO-3-METHYLBENZOFURAN; EI-MS
Formula: C9H12O
Exact mass: 136.08882
Instrument type: EI-MS
m/z	relative intensity
27	78
29	27
38	14
39	124
41	75
43	19
50	21
51	66
52	37
53	53
54	12
55	18
63	26
65	59
66	42
67	55
68	24
77	111
78	35
79	245
80	67
81	18
89	17
91	101
92	24
93	84
94	21
95	50
103	18
105	47
107	80
108	999
109	96
115	13
117	25
118	12
121	58
133	10
134	13
135	117
136	579
137	59
