Mass spectrum: 1,1-HEXAMETHYLENEHYDRAZINE; EI-MS
Name: 1-AMINOPERHYDROAZEPINE
Formula: C6H14N2
Exact mass: 114.1157
Instrument type: EI-MS
m/z	relative intensity
27	161
29	100
30	122
31	3
39	139
40	28
41	389
42	56
43	228
44	550
45	300
46	5
53	25
54	27
55	111
56	7
57	89
58	289
59	228
60	2
67	22
68	44
69	106
70	4
71	189
72	283
73	64
82	2
84	14
85	500
86	106
87	1
96	20
97	14
98	999
99	64
100	9
113	233
114	721
115	111
