Mass spectrum: 4-ETHOXY-3-METHOXYFURO(3',2':6,7)COUMARIN; EI-MS
Formula: C14H12O5
Exact mass: 260.06847
Instrument type: EI-MS
m/z	relative intensity
76	270
77	140
87	50
104	120
105	90
116	110
132	170
133	90
144	70
160	530
161	480
189	980
190	110
203	190
214	90
217	500
218	70
232	190
245	50
260	999
261	160
