Mass spectrum: BIS(2-CYANOETHYL)ETHER; EI-MS
Formula: C6H8N2O
Exact mass: 124.06366
Instrument type: EI-MS
m/z	relative intensity
13	3
14	18
15	46
16	1
25	3
26	53
27	128
28	242
29	69
30	10
31	213
32	2
35	14
37	2
38	10
39	17
40	42
41	51
42	51
43	8
44	6
50	1
51	17
52	53
53	13
54	999
55	64
56	1
57	7
67	1
68	7
70	8
84	252
85	13
86	1
97	35
98	2
123	2
125	1
