Mass spectrum: ORTHO-XYLENE; EI-MS
Name: 1,2-DIMETHYLBENZENE
Formula: C8H10
Exact mass: 106.07825
Instrument type: EI-MS
m/z	relative intensity
26	13
27	96
37	12
38	28
39	181
40	22
41	31
50	71
51	167
52	74
53	50
61	14
62	32
63	77
64	18
65	98
66	13
74	23
75	17
76	16
77	148
78	88
79	72
89	28
90	999
92	83
102	14
103	58
104	28
105	219
106	558
107	51
