Mass spectrum: DIBUTYL ETHER; EI-MS
Formula: C8H18O
Exact mass: 130.13577
Instrument type: EI-MS
m/z	relative intensity
42	12
43	16
45	16
55	35
56	155
57	999
58	47
73	13
87	133
101	21
130	10
