Mass spectrum: (29H,31H-PHTHALOCYANINATO(2-)-N(29),N(30),N(31),N(32))IRON; EI-MS
Name: PHTHALOCYANINEIRON(2)
Formula: C32H16FeN8
Exact mass: 568.08473
Instrument type: EI-MS
m/z	relative intensity
128	10
184	10
284	10
566	80
568	999
569	400
570	110
