Mass spectrum: 6-TRIMETHYLSILYLMETHYL-3,4,4A,5,8,8A-HEXAHYDRO-1(2H)-NAPHTHALENONE; EI-MS
Formula: C14H24OSi
Exact mass: 236.15964
Instrument type: EI-MS
m/z	relative intensity
42	29
43	22
45	103
55	19
59	71
73	999
74	89
75	170
77	44
79	28
91	71
92	27
104	79
105	80
117	35
118	78
129	26
131	112
145	39
146	169
147	27
149	27
169	415
170	65
171	20
203	41
236	129
237	28
