Mass spectrum: TRIMETHYLHYDRAZINE; EI-MS
Formula: C3H10N2
Exact mass: 74.0844
Instrument type: EI-MS
m/z	relative intensity
27	28
28	36
29	34
30	33
31	58
32	76
36	17
40	1
41	21
42	265
43	120
44	17
45	23
46	26
57	31
58	2
59	999
60	32
71	7
73	3
74	615
75	41
