Mass spectrum: ALPHA-NAPHTHOFLAVONE; EI-MS
Name: 2-PHENYLBENZO(H)-4H-CHROMEN-4-ONE
Formula: C19H12O2
Exact mass: 272.08373
Instrument type: EI-MS
m/z	relative intensity
18	95
28	101
32	33
39	2
50	22
51	38
52	14
62	3
63	55
64	12
69	30
74	3
75	30
76	31
77	20
86	1
87	26
88	58
89	12
94.5	2
102	55
105	15
106.5	19
107	2
107.5	36
113	93
114	558
115	6
122	142
122.5	22
126	10
142	5
149	24
170	999
171	127
172	1
213	19
215	41
244	97
245	2
271	31
272	975
273	213
274	23
