Mass spectrum: BENZYL BENZOATE; EI-MS
Formula: C14H12O2
Exact mass: 212.08373
Instrument type: EI-MS
m/z	relative intensity
27	85
28	11
38	11
39	65
41	16
50	48
51	161
52	20
63	31
64	13
65	115
74	14
75	12
76	18
77	314
78	38
79	61
89	46
90	88
91	494
92	45
105	999
106	91
107	75
165	12
167	54
194	57
195	11
