Mass spectrum: N-ACETYL-GLYCYL-ALANYL-VALYL-GLYCINE ETHYLESTER; EI-MS
Formula: C16H28N4O6
Exact mass: 372.20088
Instrument type: EI-MS
m/z	relative intensity
27	17
29	35
30	217
31	10
41	15
42	23
43	92
44	624
45	20
55	57
56	45
57	29
69	22
70	22
71	16
72	999
73	60
74	20
83	16
84	17
85	35
98	17
99	18
100	97
101	11
102	14
104	50
127	35
143	54
144	66
155	22
169	42
171	129
172	34
187	26
242	267
243	44
270	24
372	2
