Mass spectrum: BUTYL PROPIONATE; EI-MS
Formula: C7H14O2
Exact mass: 130.09938
Instrument type: EI-MS
m/z	relative intensity
15	13
26	36
27	244
28	113
29	588
30	15
31	37
39	66
40	10
41	218
42	25
43	36
55	72
56	370
57	999
58	36
71	24
73	14
74	27
75	262
87	64
