Mass spectrum: DRAMAMINE; EI-MS
Name: DIMENHYDRINATE
Formula: C24H28ClN5O3
Exact mass: 469.18807
Instrument type: EI-MS
m/z	relative intensity
36	1
38	2
39	16
40	1
41	41
42	41
43	77
44	6
45	94
46	1
49	1
50	1
51	13
52	3
53	8
54	1
55	37
56	33
57	77
58	999
59	39
61	1
62	7
63	1
65	10
67	9
68	9
69	2
70	19
71	41
72	19
73	25
74	15
75	7
76	1
77	0
78	10
79	6
81	7
82	1
83	15
84	17
85	21
86	1
87	1
88	3
89	7
90	0
91	18
92	5
94	1
95	1
96	5
97	15
98	12
99	1
100	1
101	1
102	5
103	0
104	8
105	29
106	7
107	0
109	1
110	2
111	7
112	1
113	9
114	7
115	11
117	0
118	6
119	13
120	9
125	0
126	3
127	7
128	9
129	0
130	9
131	1
132	2
135	1
136	1
139	6
140	6
141	1
142	7
149	8
151	5
152	3
153	9
154	3
155	1
157	0
163	3
164	4
165	55
166	3
167	69
168	30
169	8
203	0
204	8
206	5
207	1
208	0
209	3
218	9
219	3
244	2
