Mass spectrum: METHYL N-PENTYL ETHER; EI-MS
Formula: C6H14O
Exact mass: 102.10447
Instrument type: EI-MS
m/z	relative intensity
27	62
41	116
42	30
43	39
45	999
59	118
69	43
87	26
102	21
