Mass spectrum: ALPHA-TERPINEOL; EI-MS
Name: (S)-ALPHA,ALPHA,4-TRIMETHYL-3-CYCLOHEXENE-1-METHANOL
Formula: C10H18O
Exact mass: 154.13577
Instrument type: EI-MS
m/z	relative intensity
41	76
43	325
59	999
60	165
67	75
68	124
81	321
85	64
92	134
93	443
121	383
136	375
139	59
