Mass spectrum: 1,3,4,5-TETRAMETHYLPYRAZOLE; EI-MS
Formula: C7H12N2
Exact mass: 124.10005
Instrument type: EI-MS
m/z	relative intensity
26	12
27	76
28	56
29	3
30	15
39	96
40	28
41	9
42	155
43	33
50	12
51	3
52	28
53	64
54	36
55	6
56	218
57	17
65	22
66	4
67	32
68	123
69	20
79	3
80	20
81	28
82	100
83	2
94	18
95	22
96	19
108	2
109	463
110	50
122	22
123	999
124	842
125	71
