Mass spectrum: HEXANENITRILE; EI-MS
Formula: C6H11N
Exact mass: 97.08915
Instrument type: EI-MS
m/z	relative intensity
13	18
14	31
15	110
26	11
27	591
28	213
29	438
30	2
37	35
38	53
39	340
40	9
41	999
42	129
43	289
44	2
50	20
51	35
52	38
53	5
54	689
55	540
56	42
57	29
58	15
64	12
66	15
67	2
68	241
69	185
70	29
71	2
82	201
83	15
96	96
