Mass spectrum: N,N-DIMETHYL ACETOACETAMIDE; EI-MS
Formula: C6H11NO2
Exact mass: 129.07898
Instrument type: EI-MS
m/z	relative intensity
14	34
15	215
18	162
26	43
27	70
28	166
29	34
30	44
39	36
40	36
41	67
42	206
43	832
44	999
45	565
46	40
58	194
69	137
72	78
84	136
85	36
86	22
87	44
101	11
112	27
129	52
