Mass spectrum: 2,2,6,6-TETRAMETHYL-2,6-DISILAPIPERIDINE; EI-MS
Formula: C7H19NSi2
Exact mass: 173.1056
Instrument type: EI-MS
m/z	relative intensity
57	86
116	81
130	271
158	999
159	183
160	80
173	98
