Mass spectrum: DIBUTYL MALEATE; EI-MS
Formula: C12H20O4
Exact mass: 228.13616
Instrument type: EI-MS
m/z	relative intensity
45	28
53	158
54	124
55	456
56	780
57	42
71	42
72	3
75	55
82	94
99	999
100	29
101	24
117	632
118	28
127	2
154	66
155	171
156	40
173	21
174	21
