Mass spectrum: ISOBUTYL SALICYLATE; EI-MS
Formula: C11H14O3
Exact mass: 194.09429
Instrument type: EI-MS
m/z	relative intensity
15	11
27	72
28	19
29	16
38	28
39	210
40	14
41	16
42	11
43	21
50	11
51	1
53	32
55	21
56	24
57	13
62	14
63	54
64	62
65	20
66	15
81	12
92	202
93	9
120	999
121	337
122	29
138	32
139	30
194	154
195	22
