Mass spectrum: CINNAMIC ALDEHYDE; EI-MS
Name: 3-PHENYL-2-PROPENAL
Formula: C9H8O
Exact mass: 132.05751
Instrument type: EI-MS
m/z	relative intensity
77	25
78	139
91	11
103	21
104	212
105	27
130	142
131	999
132	698
133	65
