Mass spectrum: 2-NITROPHENYLACETIC ACID METHYL ESTER; EI-MS
Formula: C9H9NO4
Exact mass: 195.05316
Instrument type: EI-MS
m/z	relative intensity
37	41
38	1
39	108
50	66
51	138
52	7
53	33
55	12
62	54
63	19
64	87
65	410
66	41
76	5
77	205
78	573
79	104
80	2
89	234
90	112
91	221
92	35
93	46
104	20
105	112
106	6
107	12
108	33
119	20
120	5
121	142
133	33
135	46
136	26
137	20
149	999
150	10
164	18
165	16
