Mass spectrum: DIMETHYL SUCCINATE; EI-MS
Formula: C6H10O4
Exact mass: 146.05791
Instrument type: EI-MS
m/z	relative intensity
15	434
26	29
27	121
28	118
29	68
31	22
41	38
42	39
43	35
45	77
55	565
56	57
57	52
59	464
87	158
114	286
115	999
116	66
