Mass spectrum: N-(3-(4-HYDROXYPHENYL)PROPIONYL)PIPERIDIN-2-ONE; EI-MS
Formula: C14H17NO3
Exact mass: 247.12084
Instrument type: EI-MS
m/z	relative intensity
43	42
55	20
56	35
57	44
69	31
82	27
98	33
99	85
100	999
101	46
107	100
108	11
120	500
121	68
147	26
148	34
149	12
247	150
248	25
249	5
