Mass spectrum: METHYL 2,4-DIMETHOXY-6-METHYLBENZOATE; EI-MS
Formula: C11H14O4
Exact mass: 210.08921
Instrument type: EI-MS
m/z	relative intensity
65	52
76	52
77	38
90	70
92	42
121	70
135	35
136	70
148	35
151	11
164	42
165	18
178	219
179	999
210	445
211	35
