Mass spectrum: 1-OXO-1H-PYRIMIDO(1,2-A)QUINOLINE-2-CARBOXYLIC ACID; EI-MS
Formula: C13H8N2O3
Exact mass: 240.05349
Instrument type: EI-MS
m/z	relative intensity
64	110
75	120
77	150
101	28
128	870
129	240
140	130
141	5
155	43
167	71
168	590
169	11
194	55
195	410
196	440
197	6
212	290
213	41
223	20
240	999
241	170
