Mass spectrum: NEROL OXIDE; EI-MS
Name: 4-METHYL-2-(2-METHYL-1-PROPENYL)-2,3-DIHYDROPYRAN
Formula: C10H16O
Exact mass: 152.12012
Instrument type: EI-MS
m/z	relative intensity
15	11
27	140
29	98
39	219
40	77
41	295
42	43
43	50
50	11
51	31
52	16
53	204
54	19
55	145
56	34
57	11
65	28
66	28
67	525
68	999
69	148
77	31
79	32
81	64
82	52
83	648
84	50
85	244
91	32
93	17
94	15
95	51
96	78
97	20
109	47
152	51
