Mass spectrum: ISOPROPYL ACETATE (1,1,1,3,3,3-D6); EI-MS
Name: ACETIC ACID ISOPROPYL ESTER (1,1,1,3,3,3-D6)
Formula: C5H10O2
Exact mass: 102.06808
Instrument type: EI-MS
m/z	relative intensity
15	44
18	10
29	56
30	45
31	20
41	14
42	45
43	999
44	39
45	90
46	93
47	41
48	89
49	215
62	30
63	153
65	125
90	98
