Mass spectrum: 1,1-DIISOBUTOXYETHANE; EI-MS
Name: ACETALDEHYDE DIISOBUTYL ACETAL
Formula: C10H22O2
Exact mass: 174.16198
Instrument type: EI-MS
m/z	relative intensity
27	39
29	169
31	20
33	2
39	33
41	266
42	39
43	8
45	450
55	23
56	92
57	999
58	78
59	14
83	31
101	80
102	47
131	17
159	48
