Mass spectrum: 4-ETHOXY-2-BUTANONE; EI-MS
Name: ACETYLETHYL ETHYL ETHER
Formula: C6H12O2
Exact mass: 116.08373
Instrument type: EI-MS
m/z	relative intensity
15	166
26	91
27	461
28	58
29	122
31	544
39	40
41	34
42	111
43	999
44	101
45	272
46	89
55	657
59	77
70	272
71	61
72	116
73	23
87	48
101	26
