Mass spectrum: CYCLOHEXYL PENTANOATE; EI-MS
Name: CYCLOHEXYL VALERATE
Formula: C11H20O2
Exact mass: 184.14633
Instrument type: EI-MS
m/z	relative intensity
15	15
26	15
27	211
29	353
30	12
31	14
39	178
41	681
42	98
43	75
44	17
45	17
51	18
53	61
54	188
55	638
56	76
57	847
58	60
59	17
60	146
61	29
66	16
67	678
68	37
69	15
71	15
73	60
74	12
75	21
77	16
79	27
80	10
81	98
82	999
83	428
84	45
85	932
86	48
87	18
99	71
100	30
101	16
102	171
103	976
104	45
124	15
127	19
141	20
142	10
