Mass spectrum: 3-(2-AMINOETHYL)-2,7-DIMETHYLINDOLE; EI-MS
Formula: C12H16N2
Exact mass: 188.13135
Instrument type: EI-MS
m/z	relative intensity
39	19
51	15
63	17
65	2
77	20
89	17
91	33
102	1
115	93
116	31
117	14
127	1
128	23
129	17
130	18
141	1
142	33
143	87
144	87
145	3
154	12
156	49
157	77
158	999
159	308
160	31
188	136
189	20
