Mass spectrum: PARA-NITROBENZALDEHYDE; EI-MS
Formula: C7H5NO3
Exact mass: 151.02694
Instrument type: EI-MS
m/z	relative intensity
26	14
27	91
28	61
29	105
30	153
37	56
38	80
39	136
46	14
49	31
50	470
51	999
52	48
53	21
61	27
62	40
63	62
64	49
65	160
66	13
73	34
74	190
75	174
76	264
77	919
78	59
92	121
93	37
94	14
103	17
104	229
105	288
106	22
120	103
121	17
135	17
150	983
151	962
152	82
