Mass spectrum: BUTYL ACRYLATE; EI-MS
Formula: C7H12O2
Exact mass: 128.08373
Instrument type: EI-MS
m/z	relative intensity
27	67
28	23
29	59
31	15
41	148
42	15
43	28
55	999
56	973
57	75
68	30
69	22
70	23
73	684
74	27
85	106
87	14
99	25
113	10
128	5
