Mass spectrum: DIBENZOFURAN; EI-MS
Formula: C12H8O
Exact mass: 168.05751
Instrument type: EI-MS
m/z	relative intensity
50	51
51	59
53	12
61	12
62	63
63	138
64	20
65	12
69	166
70	142
74	51
75	47
84	296
86	36
87	28
88	36
89	55
90	12
113	36
114	32
138	16
139	285
140	59
167	20
168	999
169	142
170	16
