Mass spectrum: 4-PROPOXYBENZOIC ACID TRIMETHYLSILYL ESTER; EI-MS
Formula: C13H20O3Si
Exact mass: 252.11817
Instrument type: EI-MS
m/z	relative intensity
43	83
45	33
47	25
50	1
63	25
64	71
65	122
73	8
75	145
76	44
77	27
89	1
92	81
93	145
103	13
104	2
120	16
121	455
122	67
151	21
163	234
164	25
166	16
193	42
194	94
195	717
196	100
197	3
237	999
238	184
239	61
251	2
252	357
253	55
254	16
