Mass spectrum: 4-ETHYL-1-ISOPROPYL-2-PYRAZOLINE; EI-MS
Formula: C8H16N2
Exact mass: 140.13135
Instrument type: EI-MS
m/z	relative intensity
26	8
27	98
29	41
30	3
39	62
40	16
41	114
42	17
43	75
44	33
52	5
53	1
54	28
55	52
56	114
57	1
67	6
68	21
69	475
70	3
81	8
82	9
83	12
95	1
96	17
97	23
98	5
111	2
125	999
126	85
139	14
140	18
141	18
