Mass spectrum: ANTHRACENE-9-CARBOXYLIC ACID TRIMETHYLSILYL ESTER; EI-MS
Name: TRIMETHYLSILYL 9-ANTHRACENECARBOXYLATE
Formula: C18H18O2Si
Exact mass: 294.10761
Instrument type: EI-MS
m/z	relative intensity
45	260
73	378
75	239
88	19
140	174
150	158
151	333
175	11
176	967
177	410
178	357
191	6
206	597
235	349
236	70
279	999
280	219
293	341
294	528
295	134
