Mass spectrum: TRIBROMOACETIC ACID METHYL ESTER; EI-MS
Formula: C3H3Br3O2
Exact mass: 307.76832
Instrument type: EI-MS
m/z	relative intensity
38	19
40	190
43	325
51	2
53	30
59	999
60	37
80	2
82	17
107	17
121	176
123	17
149	70
151	75
173	19
187	2
213	28
215	53
216	26
217	28
