Mass spectrum: ANTHRANILIC ACID ETHYL ESTER; EI-MS
Name: ETHYL ORTHO AMINO BENZOATE
Formula: C9H11NO2
Exact mass: 165.07898
Instrument type: EI-MS
m/z	relative intensity
27	21
29	17
38	13
39	75
41	17
52	23
63	46
64	68
65	252
66	32
90	13
91	64
92	504
93	72
119	999
120	385
121	34
137	58
165	366
166	34
