Mass spectrum: CYCLOHEXANEPROPIONIC ACID TRIMETHYLSILYLESTER; EI-MS
Name: TRIMETHYLSILYL 3-CYCLOHEXYLPROPIONATE
Formula: C12H24O2Si
Exact mass: 228.15456
Instrument type: EI-MS
m/z	relative intensity
43	149
45	392
47	71
55	32
56	65
61	87
67	141
72	6
73	939
74	121
75	999
76	7
77	114
79	110
81	59
93	9
95	109
117	518
121	86
129	27
131	216
132	148
145	301
213	28
214	54
