Mass spectrum: 1-AMINO-2-PROPANOL; EI-MS
Name: 2-HYDROXYPROPYLAMINE
Formula: C3H9NO
Exact mass: 75.06841
Instrument type: EI-MS
m/z	relative intensity
15	24
18	31
19	14
27	35
28	61
29	31
30	999
31	209
32	68
41	23
42	50
43	30
44	68
45	118
46	19
56	20
60	32
75	10
