Mass spectrum: 2-ETHYLPYRAZINE; EI-MS
Formula: C6H8N2
Exact mass: 108.06875
Instrument type: EI-MS
m/z	relative intensity
26	165
27	123
28	136
29	20
37	20
38	60
39	185
40	60
41	56
42	20
50	42
51	84
52	201
53	209
54	84
55	40
56	100
64	12
65	10
66	42
79	51
80	253
81	97
93	18
107	999
108	688
109	51
