Mass spectrum: ETHYL PHENYL KETONE; EI-MS
Name: PROPIOPHENONE
Formula: C9H10O
Exact mass: 134.07316
Instrument type: EI-MS
m/z	relative intensity
27	21
28	14
29	20
50	36
51	126
76	14
77	460
78	36
105	999
106	75
133	5
134	77
135	5
