Mass spectrum: ALPHA-(4-DIMETHYLAMINOPHENYL)-OMEGA-(9-PHENANTHRYL)DECANE; EI-MS
Name: 1-(4-DIMETHYLAMINOPHENYL)-10-(9-PHENANTHRYL)DECANE
Formula: C32H39N
Exact mass: 437.30825
Instrument type: EI-MS
m/z	relative intensity
120	20
134	999
135	107
147	10
148	18
191	25
192	10
219	13
435	11
436	27
437	847
438	295
439	50
