Mass spectrum: ETHYL O-TOLUATE; EI-MS
Name: O-TOLUIC ACID ETHYL ESTER
Formula: C10H12O2
Exact mass: 164.08373
Instrument type: EI-MS
m/z	relative intensity
65	13
79	39
90	102
91	255
92	31
105	22
118	903
119	999
120	121
121	10
131	20
135	250
136	132
137	13
147	18
149	56
163	28
164	704
165	86
