Mass spectrum: (1Z.4Z)-1.5-DIIODO-1.4-PENTADIENE; EI-MS
Formula: C5H6I2
Exact mass: 319.85589
Instrument type: EI-MS
m/z	relative intensity
61	10
62	16
63	32
64	15
65	199
66	999
67	58
127	107
128	11
141	14
167	72
193	341
194	20
254	12
320	185
321	12
