Mass spectrum: CLOVENE; EI-MS
Formula: C15H24
Exact mass: 204.1878
Instrument type: EI-MS
m/z	relative intensity
27	170
28	26
29	170
30	1
38	8
39	228
40	41
41	51
42	30
43	70
51	70
53	17
54	20
55	228
56	15
57	0
63	25
64	11
65	130
66	3
67	147
68	16
69	105
70	1
71	5
77	260
78	71
79	23
80	30
81	130
82	15
83	1
89	12
90	5
91	430
92	7
93	191
94	26
95	151
96	2
97	8
102	10
103	53
104	3
105	375
106	60
107	137
108	4
109	45
110	5
115	71
116	0
117	96
118	23
119	75
120	10
121	51
122	10
123	5
127	1
128	36
129	35
130	18
131	8
132	25
133	175
134	31
135	1
141	8
142	5
143	8
144	1
145	56
146	36
147	105
148	2
159	15
160	12
161	999
162	1
163	11
175	20
176	5
189	50
190	81
191	8
204	56
205	10
