Mass spectrum: ISOBUTYLAMINE; EI-MS
Name: 2-METHYLPROPYLAMINE
Formula: C4H11N
Exact mass: 73.08915
Instrument type: EI-MS
m/z	relative intensity
27	20
28	26
29	20
30	999
31	22
39	20
41	52
43	13
44	33
55	27
56	18
58	17
72	11
73	85
74	24
