Mass spectrum: TRIETHYLENE GLYCOL MONOETHYL ETHER; EI-MS
Formula: C8H18O4
Exact mass: 178.12051
Instrument type: EI-MS
m/z	relative intensity
29	10
43	31
44	82
45	999
58	60
59	432
60	27
72	706
73	531
74	22
75	75
76	33
87	105
88	171
89	523
90	26
101	59
102	28
103	213
104	16
116	75
117	52
119	73
178	9
