Mass spectrum: TRANS-2-HEXENYL PENTANOATE; EI-MS
Name: TRANS-2-HEXENYL VALERATE
Formula: C11H20O2
Exact mass: 184.14633
Instrument type: EI-MS
m/z	relative intensity
27	143
29	161
39	173
41	474
42	70
43	113
51	12
53	48
54	123
55	363
56	45
57	774
58	31
59	29
60	15
65	12
67	291
68	18
69	23
81	28
82	223
83	199
84	17
85	999
86	47
87	14
99	20
100	21
103	23
142	11
155	15
184	20
