Mass spectrum: DECYL ACETATE; EI-MS
Formula: C12H24O2
Exact mass: 200.17763
Instrument type: EI-MS
m/z	relative intensity
15	30
27	79
28	14
29	147
39	54
40	10
41	302
42	146
43	999
44	27
53	21
54	37
55	335
56	321
57	180
58	22
61	286
67	38
68	93
69	272
70	329
71	79
73	37
81	13
82	97
83	245
84	159
85	38
96	25
97	152
98	104
101	11
110	10
111	83
112	127
113	11
116	30
140	77
