Mass spectrum: PROTOCATECHUIC ACID METHYLESTER; EI-MS
Name: METHYL 3,4-DIHYDROXYBENZOATE
Formula: C8H8O4
Exact mass: 168.04226
Instrument type: EI-MS
m/z	relative intensity
37	5
38	10
39	19
41	1
49	7
50	36
51	72
52	6
53	52
54	8
55	39
59	1
61	8
62	21
63	41
64	1
66	5
77	9
79	44
80	2
81	89
82	7
91	19
107	2
108	32
109	197
110	23
111	1
123	23
136	21
137	999
138	9
139	19
151	15
166	19
167	2
168	372
169	34
