Mass spectrum: CARBON TETRACHLORIDE; EI-MS
Name: TETRACHLOROMETHANE
Formula: CCl4
Exact mass: 151.87541
Instrument type: EI-MS
m/z	relative intensity
47	208
49	72
58	41
59	39
60	13
70	14
82	240
84	155
86	26
117	999
118	12
119	976
120	11
121	310
123	34
