Mass spectrum: 1-HYDROXY-1-(3,5-DIMETHOXYPHENYL)-3-METHYLBUTANE; EI-MS
Formula: C13H20O3
Exact mass: 224.14124
Instrument type: EI-MS
m/z	relative intensity
39	70
41	81
43	35
51	2
53	35
55	23
57	23
63	2
65	35
69	23
77	70
92	4
94	23
95	23
96	35
107	5
108	35
109	35
124	70
139	5
140	47
151	23
152	47
167	19
168	999
169	93
206	12
224	16
225	23
