Mass spectrum: 2,4,5-TRICHLOROPHENOXYACETIC ACID TRIMETHYLSILYL ESTER; EI-MS
Formula: C11H13Cl3O3Si
Exact mass: 325.96995
Instrument type: EI-MS
m/z	relative intensity
43	18
44	14
45	46
47	2
58	7
59	7
61	7
72	2
73	999
74	101
75	169
76	1
93	90
95	43
97	7
101	1
109	7
116	7
117	25
145	1
179	7
181	14
193	10
195	1
232	10
237	14
239	14
247	1
249	7
253	14
255	14
267	6
268	7
269	54
271	14
283	1
285	14
291	43
293	28
296	1
326	64
327	7
328	64
330	18
