Mass spectrum: OCTANE; EI-MS
Formula: C8H18
Exact mass: 114.14085
Instrument type: EI-MS
m/z	relative intensity
42	141
43	999
44	25
45	40
53	16
55	198
56	258
57	565
58	60
59	44
69	52
70	205
71	343
72	22
74	29
83	19
84	156
85	600
86	38
97	143
98	16
99	12
112	38
114	125
