Mass spectrum: BUTANEDIOIC ACID BIS(TRIMETHYLSILYL) ESTER; EI-MS
Name: BIS(TRIMETHYLSILYL) SUCCINATE
Formula: C10H22O4Si2
Exact mass: 262.10566
Instrument type: EI-MS
m/z	relative intensity
45	180
55	175
56	130
73	17
74	116
75	440
147	999
148	36
149	99
172	71
247	213
248	40
