Mass spectrum: 6-IODOFLAVONOL; EI-MS
Name: 3-HYDROXY-6-IODO-2-PHENYL-4H-CHROMEN-4-ONE
Formula: C15H9IO3
Exact mass: 363.95964
Instrument type: EI-MS
m/z	relative intensity
39	43
50	70
51	109
62	6
63	193
73	45
74	300
75	35
76	207
77	484
78	45
89	11
104	57
105	170
118	95
127	6
128	55
149	59
151	36
152	18
153	68
181	52
182	41
209	8
236	59
237	36
363	520
364	999
365	159
