Mass spectrum: 2-DIMETHYLAMINOETHANOL; EI-MS
Formula: C4H11NO
Exact mass: 89.08406
Instrument type: EI-MS
m/z	relative intensity
29	18
30	82
42	45
43	26
44	108
45	16
56	14
57	20
58	999
59	53
88	22
89	74
