Mass spectrum: 2,3-XYLIDINE; EI-MS
Name: 2,3-DIMETHYLANILINE
Formula: C8H11N
Exact mass: 121.08915
Instrument type: EI-MS
m/z	relative intensity
15	10
27	40
28	46
30	19
39	84
40	13
41	37
42	41
50	19
51	53
52	40
53	46
54	24
58.5	21
59.5	16
60.5	12
63	30
65	51
66	19
78	128
79	62
80	65
81	30
92	88
93	23
94	53
95	20
103	75
104	46
105	21
106	688
107	55
118	37
119	23
120	411
121	999
122	129
