Mass spectrum: METHYLCYCLOHEXANE; EI-MS
Formula: C7H14
Exact mass: 98.10955
Instrument type: EI-MS
m/z	relative intensity
42	323
43	45
51	14
52	10
53	43
54	47
55	796
56	289
57	47
67	37
68	85
69	236
70	216
71	13
81	19
82	153
83	999
84	58
97	24
98	383
99	28
