Mass spectrum: 4-HYDROXYBIPHENYL; EI-MS
Name: 4-PHENYLPHENOL
Formula: C12H10O
Exact mass: 170.07316
Instrument type: EI-MS
m/z	relative intensity
39	32
41	25
43	19
50	40
51	35
55	32
56	78
57.5	14
63	30
65	23
69	19
69.5	10
70	17
72	19
74	16
75	24
76	93
77	45
78	11
84	28
85	60
89	18
102	10
104	19
105	27
115	94
116	13
121	10
139	53
140	12
141	153
142	27
151	15
152	24
153	20
154	19
155	10
168	23
169	107
170	999
171	133
