Mass spectrum: (3-METHYLPYRID-4-YL)-METHYL ACETATE; EI-MS
Formula: C9H11NO2
Exact mass: 165.07898
Instrument type: EI-MS
m/z	relative intensity
39	130
41	50
43	470
51	5
65	70
77	70
78	90
79	1
94	150
104	90
105	999
106	2
122	80
123	390
165	90
166	15
