Mass spectrum: 4-ETHOXYCARBONYL-1-METHYL-4-PHENYL-HEXAHYDRO-1H-AZEPINE; EI-MS
Name: ZACTANE
Formula: C16H23NO2
Exact mass: 261.17288
Instrument type: EI-MS
m/z	relative intensity
48	9
49	9
50	109
51	21
52	179
53	99
54	79
55	22
56	229
57	709
58	319
59	6
61	39
62	29
63	64
64	5
65	59
66	39
67	99
68	8
69	129
70	259
71	209
72	37
73	59
74	34
75	39
76	11
77	379
78	609
79	424
80	12
81	79
82	99
83	119
84	15
85	79
86	19
87	9
90	3
91	179
92	59
93	69
94	14
95	74
96	59
97	49
98	8
99	59
100	9
101	9
102	4
103	59
104	79
105	369
106	23
107	999
108	569
109	79
110	14
111	29
118	39
119	249
120	5
121	49
122	39
123	19
124	1
148	9
149	789
150	79
151	2
152	9
183	59
184	29
185	10
186	79
187	19
188	149
189	3
190	29
191	19
192	24
193	7
194	159
195	184
196	229
197	4
198	39
199	59
200	29
208	2
209	29
210	139
211	29
212	3
213	19
219	119
220	39
221	1
222	19
223	89
224	9
245	1
246	49
247	19
248	9
259	2
260	49
261	159
262	39
263	1
264	4
