Mass spectrum: 2,6-DICHLOROTHIOBENZAMIDE; EI-MS
Formula: C7H5Cl2NS
Exact mass: 204.95198
Instrument type: EI-MS
m/z	relative intensity
33	12
34	10
35	9
36	28
37	26
38	19
39	10
45	23
49	16
50	46
51	26
52	15
59	21
60	292
61	24
62	25
63	35
68	9
69	27
73	29
74	70
75	108
76	33
78	13
84	26
85	33
86	21
90	35
93	14
99	15
100	65
101	17
102	23
107	27
108	35
109	40
110	18
111	50
112	9
113	13
119	19
133	16
134	104
135	67
136	95
137	46
138	42
139	15
142	20
143	46
144	12
145	25
146	35
147	8
148	21
154	24
169	17
170	999
171	128
172	454
173	65
174	72
175	12
176	10
177	10
189	75
191	52
193	10
205	605
206	134
207	423
208	93
209	87
210	18
