Mass spectrum: 3,4,5-TRIMETHYLPYRAZOLE; EI-MS
Formula: C6H10N2
Exact mass: 110.0844
Instrument type: EI-MS
m/z	relative intensity
26	20
27	83
28	64
29	2
30	31
38	16
39	119
40	5
41	176
42	251
43	59
45	1
50	15
51	37
52	58
53	6
54	176
55	58
56	24
57	3
60	11
65	34
66	35
67	4
68	254
69	93
70	15
71	2
77	20
78	10
79	26
80	2
81	49
82	29
83	19
94	1
95	539
96	228
97	23
98	1
108	24
109	999
110	866
111	7
112	5
