Mass spectrum: DI-TERT-BUTYL SULFIDE; EI-MS
Formula: C8H18S
Exact mass: 146.11292
Instrument type: EI-MS
m/z	relative intensity
27	42
29	136
39	92
40	10
41	286
42	13
45	18
47	16
49	15
55	33
56	93
57	999
58	42
59	70
75	88
88	22
89	24
90	48
91	27
146	138
147	13
