Mass spectrum: PIMELIC ACID MONOETHYL ESTER; EI-MS
Formula: C9H16O4
Exact mass: 188.10486
Instrument type: EI-MS
m/z	relative intensity
15	13
18	38
26	21
27	204
28	147
29	495
30	18
31	42
32	15
39	96
40	23
41	297
42	162
43	210
44	22
45	249
53	30
54	42
55	549
56	59
57	42
58	18
59	58
60	503
61	269
67	47
68	184
69	598
70	286
71	86
72	10
73	474
74	46
79	14
80	22
81	18
82	23
83	335
84	23
85	14
86	62
87	65
88	999
89	82
95	20
96	116
97	374
98	139
99	42
100	22
101	303
102	26
113	32
114	357
115	97
116	49
123	15
124	312
125	516
126	94
127	22
128	43
129	478
130	38
141	26
142	342
143	856
144	72
145	10
170	106
171	321
189	117
190	12
