Mass spectrum: HEXANE; EI-MS
Formula: C6H14
Exact mass: 86.10955
Instrument type: EI-MS
m/z	relative intensity
26	20
27	262
28	62
29	40
30	14
37	13
39	149
40	3
41	624
42	366
43	706
44	2
51	12
53	20
55	69
56	49
57	999
58	45
69	10
70	1
72	63
86	257
87	19
