Mass spectrum: ETHYL 2-PHENYLTHIOPROPIONATE; EI-MS
Formula: C11H14O2S
Exact mass: 210.07145
Instrument type: EI-MS
m/z	relative intensity
31	13
39	31
40	15
45	14
50	11
51	25
56	12
59	1
65	51
66	11
77	45
78	17
91	13
103	48
104	38
109	206
135	50
137	999
138	99
139	58
210	367
211	47
212	23
