Mass spectrum: THIOPHENE-2-CARBOXYLIC ACID TRIMETHYLSILYLESTER; EI-MS
Name: THENOIC ACID TRIMETHYLSILYL ESTER
Formula: C8H12O2SSi
Exact mass: 200.03273
Instrument type: EI-MS
m/z	relative intensity
43	66
44	24
45	97
47	4
53	15
57	24
59	15
73	12
75	42
82	15
83	164
93	6
111	844
112	51
113	30
115	2
141	209
142	258
143	161
185	999
186	127
187	88
200	367
201	5
202	27
