Mass spectrum: ACETIC ACID ISOPENTYL ESTER; EI-MS
Name: ISOPENTYL ACETATE
Formula: C7H14O2
Exact mass: 130.09938
Instrument type: EI-MS
m/z	relative intensity
15	36
27	52
28	23
29	62
39	44
41	114
42	120
43	999
44	25
45	18
55	334
56	45
57	30
58	16
61	97
69	40
70	439
71	34
72	16
73	108
74	18
85	10
87	60
88	12
