Mass spectrum: PENTAKIS(TRIMETHYLSILYL)-METHYL-6-PHOSPHOMANNOSIDE; EI-MS
Formula: C22H55O9PSi5
Exact mass: 634.243
Instrument type: EI-MS
m/z	relative intensity
73	999
129	300
147	200
204	500
217	150
287	50
299	250
315	150
357	50
370	150
387	250
529	10
619	30
