Mass spectrum: 3-ETHYL-2,6,10-TRIMETHYLUNDECANE; EI-MS
Formula: C16H34
Exact mass: 226.26605
Instrument type: EI-MS
m/z	relative intensity
27	37
29	108
39	28
41	235
42	60
43	663
44	20
55	195
56	167
57	999
58	43
69	85
70	140
71	935
72	46
83	23
84	113
85	467
86	30
97	58
98	17
99	145
112	112
113	170
127	52
140	58
141	153
155	23
183	67
197	10
216	18
226	13
