Mass spectrum: ETHYL BENZOATE; EI-MS
Formula: C9H10O2
Exact mass: 150.06808
Instrument type: EI-MS
m/z	relative intensity
29	50
50	90
51	240
77	540
105	999
106	100
122	250
150	110
