Mass spectrum: ISOBUTYL BENZOATE; EI-MS
Formula: C11H14O2
Exact mass: 178.09938
Instrument type: EI-MS
m/z	relative intensity
27	57
28	14
29	62
39	6
41	99
42	10
43	22
50	6
51	185
52	14
55	18
56	30
57	30
73	15
74	12
75	1
76	27
77	450
78	37
79	4
105	999
106	83
122	27
123	51
124	41
