Mass spectrum: NITROMETHANE; EI-MS
Formula: CH3NO2
Exact mass: 61.01638
Instrument type: EI-MS
m/z	relative intensity
14	37
15	272
16	69
17	193
18	687
26	73
27	346
28	174
29	138
30	999
31	14
38	18
39	28
40	73
41	147
42	36
43	69
44	453
45	102
46	351
60	45
61	483
