Mass spectrum: 1-METHYLBICYCLO(4.4.0)DECANE-4,4-D2(CIS); EI-MS
Formula: C11H20
Exact mass: 152.1565
Instrument type: EI-MS
m/z	relative intensity
39	79
40	33
41	158
42	69
43	43
51	14
52	11
53	45
54	36
55	126
56	72
57	43
65	13
66	23
67	170
68	131
69	152
70	54
71	31
77	16
78	12
79	33
80	22
81	149
82	258
83	233
84	119
85	46
91	10
93	15
94	17
95	216
96	165
97	384
98	151
99	19
109	104
110	64
111	122
112	74
125	41
126	10
138	107
139	999
140	124
154	199
155	25
