Mass spectrum: NONANEDIOL DIMETHACRYLATE; EI-MS
Formula: C17H28O4
Exact mass: 296.19876
Instrument type: EI-MS
m/z	relative intensity
28	45
39	36
41	251
68	2
69	999
70	48
73	51
96	2
99	11
143	20
145	33
147	3
197	23
210	47
211	56
212	1
221	30
267	5
268	15
281	3
282	9
283	6
295	10
296	6
