Mass spectrum: 5-NONANONE; EI-MS
Name: DIBUTYL KETONE
Formula: C9H18O
Exact mass: 142.13577
Instrument type: EI-MS
m/z	relative intensity
15	14
26	12
27	179
28	72
29	410
30	11
39	91
40	14
41	362
42	31
43	52
53	21
55	49
56	20
57	999
58	780
59	57
71	69
72	40
84	11
85	881
86	54
100	89
113	55
142	158
143	17
