Mass spectrum: 4-HYDROXYBENZOPHENONE; EI-MS
Formula: C13H10O2
Exact mass: 198.06808
Instrument type: EI-MS
m/z	relative intensity
38	12
39	83
50	58
51	160
52	13
53	24
62	31
63	84
64	47
65	354
66	28
74	49
75	42
76	55
77	512
78	51
84	12
85	66
89	18
92	38
93	232
94	19
105	257
106	24
115	47
120	15
121	999
122	84
139	15
141	21
198	76
199	12
