Mass spectrum: DIISOBUTYL CELLOSOLVE; EI-MS
Name: ETHYLENE GLYCOL DIISOBUTYL ETHER
Formula: C10H22O2
Exact mass: 174.16198
Instrument type: EI-MS
m/z	relative intensity
15	571
26	33
27	143
28	29
29	70
31	13
39	38
40	11
41	28
42	114
43	999
44	60
57	14
58	595
59	97
73	1
101	2
