Mass spectrum: 3,4-DIMETHYLPHENOL; EI-MS
Formula: C8H10O
Exact mass: 122.07316
Instrument type: EI-MS
m/z	relative intensity
51	104
52	41
53	77
55	34
59	23
60	40
61	23
62	21
63	32
65	53
76	49
77	248
78	64
79	102
90	32
91	134
92	21
93	32
103	28
106	170
107	999
108	78
120	78
121	455
122	649
123	59
