Mass spectrum: PIVALOYL CHLORIDE; EI-MS
Name: TRIMETHYLACETYL CHLORIDE
Formula: C5H9ClO
Exact mass: 120.03419
Instrument type: EI-MS
m/z	relative intensity
15	21
26	15
27	78
28	32
29	300
37	11
38	23
39	140
40	23
41	480
42	42
50	11
53	11
55	32
56	23
57	999
58	42
63	14
77	38
79	11
85	23
