Mass spectrum: ORTHO METHYL ACETOPHENONE; EI-MS
Formula: C9H10O
Exact mass: 134.07316
Instrument type: EI-MS
m/z	relative intensity
27	19
38	14
39	116
41	30
43	153
45.5	19
50	32
51	64
52	12
62	27
63	77
64	18
65	231
66	23
77	34
89	62
90	26
91	999
92	79
103	10
105	10
115	14
119	922
120	83
134	295
135	30
