Mass spectrum: DIETHYLENE GLYCOL MONOMETHYL ETHER; EI-MS
Name: 2-(2-METHOXYETHOXY)ETHNOL
Formula: C5H12O3
Exact mass: 120.07864
Instrument type: EI-MS
m/z	relative intensity
15	101
19	24
26	13
27	84
28	23
29	203
30	11
31	237
33	14
42	15
43	130
44	41
45	999
46	17
58	231
59	423
60	48
75	97
87	14
89	108
90	125
