Mass spectrum: N-CINNAMOYLPIPERIDIN-2-ONE; EI-MS
Formula: C14H15NO2
Exact mass: 229.11028
Instrument type: EI-MS
m/z	relative intensity
82	60
98	140
103	390
104	50
131	999
132	125
201	100
229	210
230	55
231	20
