Mass spectrum: ISOPROPYL 4-CYANOBENZOATE; EI-MS
Formula: C11H11NO2
Exact mass: 189.07898
Instrument type: EI-MS
m/z	relative intensity
27	65
29	99
34	12
39	44
40	212
41	113
42	171
43	223
44	32
50	41
51	58
52	12
74	12
75	81
76	52
102	301
103	61
104	32
130	999
131	122
147	41
148	539
149	58
171	9
174	41
189	59
190	9
