Mass spectrum: DIHYDROCARVENYL ACETATE(AXIAL); EI-MS
Formula: C12H20O2
Exact mass: 196.14633
Instrument type: EI-MS
m/z	relative intensity
43	415
44	10
53	9
55	66
56	5
57	6
58	5
67	45
68	211
69	71
70	6
71	16
72	35
77	6
78	6
79	194
80	131
81	182
82	103
83	44
84	18
85	11
86	11
91	16
92	131
93	652
94	363
95	129
96	19
97	67
98	11
99	5
105	11
106	6
107	673
108	155
109	28
110	14
111	41
112	9
121	623
122	56
123	10
135	20
136	999
137	107
138	7
153	14
154	83
155	10
196	67
197	10
