Mass spectrum: N-CYCLOHEXYL-P-TOLUENESULFONAMIDE; EI-MS
Formula: C13H19NO2S
Exact mass: 253.11365
Instrument type: EI-MS
m/z	relative intensity
43	57
44	27
51	38
53	19
54	65
55	60
62	41
65	175
66	16
67	30
77	32
79	19
81	32
82	49
89	41
90	38
91	601
92	85
98	346
99	35
105	32
106	41
107	32
108	21
133	49
139	32
146	21
155	678
156	65
157	41
171	32
172	93
211	145
212	54
224	57
253	497
254	85
255	30
