Mass spectrum: 2-ETHOXYETHYL ACETATE; EI-MS
Name: CELLOSOLVE ACETATE
Formula: C6H12O3
Exact mass: 132.07864
Instrument type: EI-MS
m/z	relative intensity
14	13
15	101
26	14
27	85
28	37
29	162
31	460
41	24
42	32
43	999
44	222
45	103
58	25
59	433
60	15
61	34
70	11
72	343
73	39
74	20
87	73
88	67
89	14
