Mass spectrum: ISOPENTANE; EI-MS
Formula: C5H12
Exact mass: 72.0939
Instrument type: EI-MS
m/z	relative intensity
15	19
26	23
27	291
28	42
29	381
30	12
38	19
39	179
40	30
41	674
42	908
43	999
44	35
51	14
52	19
54	23
56	54
57	209
58	621
59	30
71	26
72	107
