Mass spectrum: 2-METHYLPENTYL BUTYRATE; EI-MS
Formula: C10H20O2
Exact mass: 172.14633
Instrument type: EI-MS
m/z	relative intensity
27	160
29	99
39	89
40	14
41	262
42	109
43	687
44	21
45	13
53	11
55	103
56	369
57	41
60	33
69	110
70	22
71	999
72	50
73	19
83	16
84	308
85	92
87	17
88	38
89	93
100	56
101	59
