Mass spectrum: 1,1-DIMETHYL-2-PROPENYL ACETATE; EI-MS
Name: DIMETHYL VINYL CARBINYL ACETATE
Formula: C7H12O2
Exact mass: 128.08373
Instrument type: EI-MS
m/z	relative intensity
15	101
18	14
26	18
27	156
28	13
29	28
31	13
38	12
39	147
40	34
41	470
42	55
43	999
44	21
45	10
50	13
51	23
53	98
54	15
55	32
57	23
59	49
67	109
68	287
69	331
70	17
71	357
72	13
85	118
113	28
