Mass spectrum: 2-METHYL-6-NITROINDOLIZINE; EI-MS
Formula: C9H8N2O2
Exact mass: 176.05858
Instrument type: EI-MS
m/z	relative intensity
41	11
43	13
50	38
51	9
52	41
53	22
57	15
63	4
74	10
75	19
76	38
77	31
78	25
88	15
101	12
102	9
103	275
104	28
117	10
118	4
128	44
129	41
175	12
176	999
177	107
