Mass spectrum: PROQUAMAZINE; EI-MS
Formula: C19H25N3S
Exact mass: 327.17692
Instrument type: EI-MS
m/z	relative intensity
41	79
42	109
43	99
55	10
56	119
57	99
58	589
70	62
71	209
72	119
115	339
154	4
166	19
171	9
180	39
198	999
212	19
223	9
238	9
269	12
282	9
327	29
