Mass spectrum: 2-HEXANOL; EI-MS
Formula: C6H14O
Exact mass: 102.10447
Instrument type: EI-MS
m/z	relative intensity
15	13
27	94
28	17
29	78
31	26
39	52
41	136
42	31
43	114
44	70
45	999
46	25
55	36
56	32
57	31
69	157
84	37
87	59
