Mass spectrum: EUGENOL; EI-MS
Formula: C10H12O2
Exact mass: 164.08373
Instrument type: EI-MS
m/z	relative intensity
40	20
41	80
42	20
43	40
44	15
50	80
51	160
52	90
53	110
54	25
55	255
56	20
57	20
61	20
62	50
63	80
64	40
65	150
66	90
67	25
68	20
69	20
74	30
75	50
76	25
77	380
78	120
79	125
80	20
81	35
89	45
90	30
91	210
92	50
93	95
94	125
95	30
101	20
102	45
103	315
104	210
105	135
106	30
107	50
108	20
109	20
115	40
116	20
117	20
118	25
119	50
120	30
121	230
122	105
123	20
124	10
130	20
131	270
132	100
133	200
134	20
135	30
136	20
137	235
138	30
147	60
148	21
149	370
150	50
163	50
164	999
165	120
166	20
