Mass spectrum: 5,9-DIMETHYL-4,8-DECADIENYL ACETATE(E); EI-MS
Formula: C14H24O2
Exact mass: 224.17763
Instrument type: EI-MS
m/z	relative intensity
39	34
41	357
43	280
53	67
55	110
67	216
68	133
69	999
70	62
79	62
81	140
82	32
93	110
94	60
95	892
96	250
107	40
108	40
109	48
121	190
122	28
123	98
149	87
164	70
181	268
