Mass spectrum: ISOAMYL BENZOATE; EI-MS
Name: ISOPENTYL BENZOATE
Formula: C12H16O2
Exact mass: 192.11503
Instrument type: EI-MS
m/z	relative intensity
27	45
28	16
29	43
39	34
41	75
42	106
43	79
50	26
51	110
55	260
56	15
69	31
70	999
71	60
76	18
77	389
78	31
79	32
105	965
106	78
122	64
123	264
124	21
149	9
