Mass spectrum: 3-ETHYLPYRIDINE; EI-MS
Formula: C7H9N
Exact mass: 107.0735
Instrument type: EI-MS
m/z	relative intensity
27	105
28	70
29	92
37	11
38	117
39	377
40	21
41	18
50	173
51	261
52	87
53	20
54	20
62	20
63	87
64	76
65	342
66	42
77	105
78	62
79	194
80	63
91	12
92	999
93	72
105	25
106	446
107	813
108	58
