Mass spectrum: 1-HEPTYLAMINE; EI-MS
Formula: C7H17N
Exact mass: 115.1361
Instrument type: EI-MS
m/z	relative intensity
18	45
27	56
28	36
29	4
30	999
31	20
39	37
41	7
42	26
43	31
44	61
45	5
55	32
56	24
86	19
115	18
