Mass spectrum: DIETHYL CARBONATE; EI-MS
Formula: C5H10O3
Exact mass: 118.06299
Instrument type: EI-MS
m/z	relative intensity
27	144
28	125
29	999
30	25
31	820
41	19
43	21
45	797
46	24
47	34
59	23
63	96
91	123
118	10
