Mass spectrum: 3-INDOLEBUTYRIC ACID; EI-MS
Formula: C12H13NO2
Exact mass: 203.09463
Instrument type: EI-MS
m/z	relative intensity
39	10
45	28
51	11
63	10
76	10
77	65
89	13
102	4
103	62
104	9
115	34
116	1
117	22
128	34
129	48
130	999
131	117
142	20
143	105
144	3
156	24
203	300
204	42
