Mass spectrum: METHYL 4-METHYL-3-DECENOATE; EI-MS
Formula: C12H22O2
Exact mass: 198.16198
Instrument type: EI-MS
m/z	relative intensity
26	30
27	50
28	610
29	490
30	20
31	20
32	140
33	10
37	10
38	20
39	340
40	100
41	920
42	140
43	440
44	20
45	40
50	40
51	70
52	60
53	280
54	60
55	980
56	90
57	110
58	10
59	290
60	10
61	10
62	10
63	20
65	60
66	40
67	400
68	730
69	999
70	90
71	50
72	20
73	60
74	210
75	30
76	10
77	70
78	90
79	90
80	30
81	430
82	140
83	280
84	30
85	170
86	50
87	80
88	20
89	10
91	20
92	10
93	20
94	10
95	190
96	380
97	120
98	50
99	120
100	10
101	10
105	10
107	10
108	10
109	130
110	170
111	60
112	10
113	30
114	20
115	60
116	10
121	10
122	20
123	30
124	180
125	60
126	10
127	40
128	240
129	40
130	10
133	10
137	20
138	40
139	70
140	10
141	50
142	20
143	10
148	10
151	10
155	20
166	30
164	10
198	70
199	20
