Mass spectrum: DI-STEARYL THIO-DI-PROPIONATE; EI-MS
Formula: C42H82O4S
Exact mass: 682.59338
Instrument type: EI-MS
m/z	relative intensity
27	55
28	114
29	170
41	319
42	77
43	796
54	36
55	999
56	202
57	804
58	26
61	66
67	70
68	94
69	366
70	140
71	426
73	198
74	31
81	62
82	111
83	356
84	80
85	219
87	22
88	62
89	243
95	48
96	65
97	227
98	55
99	55
105	70
106	193
107	107
109	24
110	35
111	109
112	30
113	62
114	49
115	32
119	47
125	56
127	56
132	102
133	44
139	23
141	27
142	50
143	360
144	31
160	30
161	212
178	256
179	67
180	20
285	27
325	48
357	23
412	20
413	50
430	82
431	33
682	81
683	38
