Mass spectrum: N-(4,4-DIDEUTERO-4-PHENYLBUTYRYL)PIPERIDIN-2-ONE; EI-MS
Formula: C15H19NO2
Exact mass: 245.14158
Instrument type: EI-MS
m/z	relative intensity
41	70
42	55
43	190
44	35
45	30
55	130
56	45
57	80
58	90
61	20
69	40
70	70
71	130
72	25
76	25
81	25
82	40
83	45
84	30
85	65
86	20
91	110
92	70
93	190
94	30
95	20
96	20
97	45
98	80
99	360
100	670
101	280
102	25
104	50
105	300
106	110
107	60
109	20
111	30
112	60
113	90
114	720
115	70
118	25
119	40
125	20
126	20
131	20
139	60
141	120
142	999
143	100
147	30
148	30
149	60
154	90
155	45
165	10
166	50
167	10
247	70
248	20
249	7
