Mass spectrum: 1-METHYL-2-PYRROLIDINONE; EI-MS
Formula: C5H9NO
Exact mass: 99.06841
Instrument type: EI-MS
m/z	relative intensity
30	52
39	88
40	27
41	330
42	430
43	147
44	677
45	2
55	34
56	67
57	24
58	55
68	40
69	44
70	95
71	129
98	710
99	999
100	85
