Mass spectrum: TRIMELLITIC ACID TRIBUTYL ESTER; EI-MS
Name: TRIBUTYL TRIMELLITATE
Formula: C21H30O6
Exact mass: 378.20424
Instrument type: EI-MS
m/z	relative intensity
41	13
56	30
57	39
148	22
149	15
167	11
193	193
194	23
249	999
250	146
251	21
267	18
305	189
306	37
323	77
324	15
378	258
379	61
380	10
