Mass spectrum: ISOBUTYRONITRILE; EI-MS
Formula: C4H7N
Exact mass: 69.05785
Instrument type: EI-MS
m/z	relative intensity
15	11
26	31
27	71
28	186
29	17
39	26
40	40
41	244
42	999
43	40
52	34
53	107
54	300
55	11
66	11
67	14
68	663
69	33
