Mass spectrum: 1,4-DINITROBENZENE; EI-MS
Formula: C6H4N2O4
Exact mass: 168.01711
Instrument type: EI-MS
m/z	relative intensity
40	11
43	17
44	82
45	11
46	42
49	45
50	999
51	123
52	44
53	56
54	19
61	35
62	61
63	202
64	264
65	21
73	39
74	236
75	685
76	503
77	47
92	159
93	12
122	117
168	317
169	28
