Mass spectrum: 2,2,4-TRIMETHYLCYCLOPENTANONE; EI-MS
Formula: C8H14O
Exact mass: 126.10447
Instrument type: EI-MS
m/z	relative intensity
28	11
41	133
42	74
43	3
55	97
56	999
57	94
67	2
68	29
69	235
70	49
71	5
82	164
83	210
84	79
93	7
97	27
108	61
109	15
111	35
112	29
126	360
127	33
