Mass spectrum: N-METHYLACETAMIDE; EI-MS
Formula: C3H7NO
Exact mass: 73.05276
Instrument type: EI-MS
m/z	relative intensity
12	18
13	98
15	289
16	13
25	29
26	71
27	478
28	108
30	383
31	84
32	23
38	13
39	22
40	32
41	60
42	165
43	999
44	51
45	47
54	12
55	14
56	14
58	423
59	10
73	385
74	53
