Mass spectrum: 3-BUTENYL ISOTHIOCYANATE; EI-MS
Formula: C5H7NS
Exact mass: 113.02992
Instrument type: EI-MS
m/z	relative intensity
39	491
41	283
51	132
53	19
55	491
58	76
59	113
60	9
72	999
73	94
74	170
85	15
113	509
114	94
115	77
