Mass spectrum: CYCLOPENTANOL; EI-MS
Formula: C5H10O
Exact mass: 86.07316
Instrument type: EI-MS
m/z	relative intensity
27	200
29	220
39	180
41	20
44	360
45	150
57	999
58	14
86	70
