Mass spectrum: 3,4-DICHLOROBENZOIC ACID METHYL ESTER; EI-MS
Formula: C8H6Cl2O2
Exact mass: 203.97448
Instrument type: EI-MS
m/z	relative intensity
50	69
59	25
73	43
74	25
75	223
84	76
85	29
109	25
110	84
111	80
145	501
146	3
147	315
149	51
169	36
173	18
174	124
175	999
176	76
177	16
186	69
203	32
204	472
205	6
206	296
207	32
208	43
