Mass spectrum: 1-(4-HYDROXY-3-METHOXYPHENYL)DEC-4-EN-3-ONE; EI-MS
Name: SHOGAOL
Formula: C17H24O3
Exact mass: 276.17254
Instrument type: EI-MS
m/z	relative intensity
39	11
41	123
43	68
45	1
51	11
53	25
55	397
56	2
57	27
59	22
63	8
65	3
66	14
67	27
68	11
69	12
70	11
71	19
77	27
78	1
79	41
81	66
82	19
83	4
84	8
89	11
91	342
92	5
93	49
94	38
95	66
96	2
97	36
98	11
103	25
105	3
106	11
107	71
108	33
109	4
110	8
115	11
117	27
118	1
119	241
120	30
121	47
122	11
123	19
124	88
125	167
126	2
129	16
131	47
132	16
133	1
134	16
135	96
136	68
137	999
138	151
139	25
142	8
143	2
144	11
145	60
146	11
147	3
148	22
149	25
150	205
151	38
152	44
153	11
157	14
159	2
160	11
161	41
162	11
163	3
164	14
166	11
173	14
174	1
175	33
176	8
177	38
178	1
179	47
187	30
189	14
190	1
191	25
201	11
202	8
204	1
205	822
206	140
207	19
210	1
218	19
219	8
220	8
232	1
248	22
259	8
275	11
276	66
277	132
278	52
