Mass spectrum: PHENYL ACETATE; EI-MS
Formula: C8H8O2
Exact mass: 136.05243
Instrument type: EI-MS
m/z	relative intensity
15	33
38	32
39	148
40	19
42	17
43	286
50	22
51	42
55	14
62	13
63	33
64	15
65	112
66	121
77	23
93	14
94	999
95	73
136	138
137	11
