Mass spectrum: N-VINYL-2-PYRROLIDONE; EI-MS
Formula: C6H9NO
Exact mass: 111.06841
Instrument type: EI-MS
m/z	relative intensity
26	55
27	205
28	35
29	4
30	36
31	26
39	81
40	1
41	178
42	134
43	87
44	6
54	127
55	386
56	999
57	8
58	34
68	121
69	36
71	23
73	51
82	106
83	105
84	3
85	32
86	35
110	36
111	76
112	62
