Mass spectrum: 2-(3-BENZOYLPHENYL)BUTYRIC ACID TRIMETHYLSILYL ESTER; EI-MS
Formula: C20H24O3Si
Exact mass: 340.14947
Instrument type: EI-MS
m/z	relative intensity
41	4
43	4
44	6
45	7
55	6
56	2
57	17
58	4
69	7
70	5
71	5
72	5
73	880
74	78
75	147
76	6
77	19
81	2
82	2
83	7
84	4
85	2
96	3
97	5
98	6
99	6
103	1
105	54
106	4
109	3
111	1
112	2
113	2
117	80
118	7
119	4
125	2
129	20
131	15
132	47
133	7
134	2
135	2
141	4
142	1
145	47
146	8
147	7
149	4
155	3
159	4
167	8
168	1
179	2
187	2
191	2
195	15
196	2
201	5
207	4
208	4
209	3
221	4
222	7
223	6
224	6
239	3
252	2
254	3
255	2
265	4
267	34
269	8
270	3
279	3
281	437
282	153
283	39
284	9
286	2
293	1
296	999
299	22
300	5
309	4
312	21
325	286
338	1
339	1
340	31
341	7
342	1
