Mass spectrum: 2-METHYLPHENOL; EI-MS
Formula: C7H8O
Exact mass: 108.05751
Instrument type: EI-MS
m/z	relative intensity
51	285
52	137
53	222
54	73
55	42
61	31
62	64
63	124
64	35
65	52
66	30
74	33
76	75
77	472
78	171
79	502
80	213
81	35
89	165
90	261
91	79
106	114
107	939
108	999
109	78
