Mass spectrum: HEXYL BENZOATE; EI-MS
Formula: C13H18O2
Exact mass: 206.13068
Instrument type: EI-MS
m/z	relative intensity
27	102
29	91
39	68
41	172
42	97
43	131
50	39
51	184
52	11
53	13
54	13
55	136
56	243
57	16
69	85
76	28
77	536
78	36
79	75
83	12
84	156
105	999
106	79
122	156
123	844
124	67
206	11
