Mass spectrum: 2-PHENYLPROPANAL DIMETHYL ACETAL; EI-MS
Formula: C11H16O2
Exact mass: 180.11503
Instrument type: EI-MS
m/z	relative intensity
15	24
27	14
29	17
31	44
39	16
43	17
47	112
51	30
65	12
75	999
76	38
78	16
79	27
91	52
103	23
105	72
115	14
117	39
149	71
