Mass spectrum: 3,5-DIMETHYL-4-(3'-ACETYLACETONYL)METHYL-ISOXAZOLE; EI-MS
Formula: C11H15NO3
Exact mass: 209.10519
Instrument type: EI-MS
m/z	relative intensity
209	30
166	730
124	240
110	410
68	450
43	999
42	90
41	90
