Mass spectrum: 4-METHYLTETRAHYDROPYRAN; EI-MS
Formula: C6H12O
Exact mass: 100.08882
Instrument type: EI-MS
m/z	relative intensity
26	36
27	151
28	77
29	12
31	56
38	37
39	171
40	4
41	351
42	942
43	258
44	5
45	250
50	34
51	12
53	6
54	71
55	999
56	135
57	11
58	51
67	351
68	104
69	12
70	382
71	93
81	99
82	29
83	51
85	62
99	910
100	71
101	49
104	27
