Mass spectrum: (2-BROMOETHYL)BENZENE; EI-MS
Name: PHENYL BROMIDE
Formula: C8H9Br
Exact mass: 183.98876
Instrument type: EI-MS
m/z	relative intensity
26	15
27	66
28	10
38	20
39	84
50	79
51	170
52	43
53	11
62	22
63	61
64	13
65	81
74	32
75	26
76	30
77	198
78	122
79	114
80	12
81	13
82	12
89	30
90	11
91	999
92	82
93	27
95	25
102	33
103	146
104	161
105	706
106	62
184	269
185	25
186	270
187	25
