Mass spectrum: AMYL CROTONATE; EI-MS
Name: PENTYL TRANS-2-BUTENOATE
Formula: C9H16O2
Exact mass: 156.11503
Instrument type: EI-MS
m/z	relative intensity
26	10
27	102
29	96
38	14
39	238
40	16
41	381
42	157
43	104
55	123
68	22
69	999
70	175
71	13
87	646
88	25
99	10
