Mass spectrum: 3-ISOPROPYL-2,5-PIPERAZINEDIONE; EI-MS
Name: CYCLOGLYCYLVALINE
Formula: C7H12N2O2
Exact mass: 156.08988
Instrument type: EI-MS
m/z	relative intensity
30	122
42	12
43	19
56	1
57	48
70	77
71	14
72	2
86	45
113	135
114	999
115	6
141	13
156	8
