Mass spectrum: 2-PYRIDYL P-TOLYL ETHER; EI-MS
Formula: C12H11NO
Exact mass: 185.08406
Instrument type: EI-MS
m/z	relative intensity
50	70
51	330
52	150
53	60
63	90
65	160
77	200
78	380
79	80
89	80
91	190
92	50
107	60
115	150
128	80
129	140
130	130
142	80
154	60
156	510
157	750
158	110
183	70
184	999
185	999
186	180
