Mass spectrum: O-METHOXYPHENOL; EI-MS
Formula: C7H8O2
Exact mass: 124.05243
Instrument type: EI-MS
m/z	relative intensity
38	20
39	59
50	37
51	53
52	63
53	108
55	23
62	2
63	39
64	17
65	49
77	3
80	17
81	433
82	25
95	2
109	999
110	68
121	14
124	90
125	73
