Mass spectrum: 3-NITROPHTHALIC ACID BIS(TRIMETHYLSILYL) ESTER; EI-MS
Formula: C14H21NO6Si2
Exact mass: 355.09074
Instrument type: EI-MS
m/z	relative intensity
43	128
44	157
45	100
47	3
51	14
55	128
69	57
72	4
73	628
74	57
75	257
77	3
115	14
117	42
119	14
129	4
131	42
132	85
133	57
141	1
147	999
148	128
149	85
296	7
340	314
341	71
