Mass spectrum: 2,3-DIMETHYL-1,3-BUTADIENE; EI-MS
Formula: C6H10
Exact mass: 82.07825
Instrument type: EI-MS
m/z	relative intensity
15	46
26	29
27	233
28	21
29	38
37	38
38	116
39	898
40	176
41	717
42	129
43	34
50	63
51	105
52	46
53	199
54	301
55	51
56	18
61	12
62	19
63	36
65	137
66	38
67	999
68	47
77	23
79	53
81	110
82	543
83	31
