Mass spectrum: ETHYL SALICYLATE; EI-MS
Name: ETHYL ORTHO HYDROXY BENZOATE
Formula: C9H10O3
Exact mass: 166.06299
Instrument type: EI-MS
m/z	relative intensity
27	29
29	28
38	14
39	106
53	24
63	58
64	80
65	126
92	443
93	100
120	999
121	279
122	19
138	21
166	260
167	25
