Mass spectrum: (E)-3,7-DIMETHYL-2,6-OCTADIEN-1-OL; EI-MS
Name: GERANIOL
Formula: C10H18O
Exact mass: 154.13577
Instrument type: EI-MS
m/z	relative intensity
28	10
29	25
41	348
42	2
43	23
53	11
55	39
56	2
57	35
59	34
67	56
68	20
69	999
70	71
71	60
72	1
78	6
79	19
80	66
81	5
82	11
83	25
84	83
85	2
86	4
91	11
92	34
93	16
94	27
95	19
96	33
97	2
98	14
105	6
107	18
108	1
109	13
110	13
111	66
112	1
121	57
122	6
123	103
136	4
137	5
139	22
154	26
