Mass spectrum: ETHYL (4R*,5R*)-(E)-4-(2'-TETRAHYDROPYRANYL)OXY-5-(TERT-BUTYLDIMETHYLSILYL)OXY-2-HEXENOATE; EI-MS
Formula: C19H36O5Si
Exact mass: 372.2332
Instrument type: EI-MS
m/z	relative intensity
85	245
130	998
131	12
141	1
149	60
157	23
159	234
160	14
161	85
169	11
185	79
186	2
187	4
212	5
213	31
214	10
215	6
231	999
232	54
233	1
241	11
244	527
245	208
246	4
269	6
270	7
271	19
273	1
279	42
315	22
329	65
330	20
