Mass spectrum: BENZYL CYANIDE; EI-MS
Formula: C8H7N
Exact mass: 117.05785
Instrument type: EI-MS
m/z	relative intensity
39	9
51	36
63	14
64	12
65	22
77	51
78	8
89	123
90	285
91	60
116	245
117	999
118	92
119	9
