Mass spectrum: ISOBUTYL ACRYLATE; EI-MS
Name: PROPENOIC ACID ISOBUTYL ESTER
Formula: C7H12O2
Exact mass: 128.08373
Instrument type: EI-MS
m/z	relative intensity
26	27
27	175
28	38
29	59
31	12
39	56
40	12
41	184
42	18
43	43
44	15
55	999
56	512
57	49
69	22
70	20
72	22
73	94
85	86
