Mass spectrum: HEXANOIC ACID ISOPENTYL ESTER; EI-MS
Formula: C11H22O2
Exact mass: 186.16198
Instrument type: EI-MS
m/z	relative intensity
27	93
28	32
29	124
39	52
41	167
42	98
43	506
44	18
45	16
53	12
55	214
56	20
57	13
60	42
61	12
69	47
70	999
71	349
72	18
73	27
87	21
99	337
100	25
115	13
116	18
117	101
130	16
143	18
184	4
