Mass spectrum: 1,6-DIMETHYL-4-OXO-1,6,7,8,9,9A-HEXAHYDRO-4H-PYRIDO(1,2-A)PYRIMIDINE-3-CARBOXYLIC ACID ETHYL ESTER; EI-MS
Formula: C13H20N2O3
Exact mass: 252.14739
Instrument type: EI-MS
m/z	relative intensity
41	215
42	800
53	60
54	13
55	280
69	650
82	225
83	9
84	190
96	175
97	400
98	50
110	600
117	125
119	130
123	9
128	60
131	95
137	650
138	15
149	95
150	65
151	175
155	7
156	265
178	95
179	80
183	999
184	95
195	45
197	50
205	3
206	140
207	190
208	35
209	5
210	80
219	205
223	135
224	4
237	80
251	200
252	800
253	115
