Mass spectrum: ETHYLENEGLYCOL MONOLAURATE; EI-MS
Formula: C14H28O3
Exact mass: 244.20384
Instrument type: EI-MS
m/z	relative intensity
43	999
44	89
45	147
53	45
54	466
55	135
56	655
57	5
58	54
59	375
60	149
67	7
68	45
69	228
70	70
71	24
73	384
74	265
75	47
77	2
81	53
82	30
83	138
84	20
85	178
86	179
87	265
88	3
95	57
97	102
98	300
99	14
101	65
104	193
109	32
111	5
112	94
115	64
117	60
126	5
129	121
138	21
140	38
143	5
155	24
157	91
171	42
182	6
183	417
184	59
200	178
201	8
214	41
226	134
227	594
228	9
244	25
245	155
246	27
