Mass spectrum: 1-CHLORO-2-(ORTHO-CHLOROPHENYL)-ETHANE; EI-MS
Name: 1-CHLORO-2-(2-CHLOROETHYL)BENZENE
Formula: C8H8Cl2
Exact mass: 174.00031
Instrument type: EI-MS
m/z	relative intensity
50	20
51	37
63	21
75	31
77	48
89	44
90	14
99	19
101	26
102	21
103	52
125	999
126	85
127	340
128	25
138	12
139	25
174	244
175	23
176	164
