Mass spectrum: ACETYL ACETONE; EI-MS
Formula: C5H8O2
Exact mass: 100.05243
Instrument type: EI-MS
m/z	relative intensity
14	14
15	83
26	12
27	40
28	22
29	36
31	22
39	34
41	40
42	48
43	999
44	24
55	11
58	43
72	48
85	247
86	12
100	147
101	14
