Mass spectrum: ISOPENTYL ISOPENTANOATE; EI-MS
Name: ISOAMYL ISOVALERATE
Formula: C10H20O2
Exact mass: 172.14633
Instrument type: EI-MS
m/z	relative intensity
27	130
29	135
31	11
39	109
41	339
42	137
43	484
44	11
45	18
53	15
55	290
56	37
57	375
58	17
59	18
60	37
61	20
69	53
70	999
71	300
72	15
85	551
86	27
87	33
102	14
103	136
115	24
129	24
130	12
