Mass spectrum: 2-HEXANONE; EI-MS
Formula: C6H12O
Exact mass: 100.08882
Instrument type: EI-MS
m/z	relative intensity
38	8
39	90
40	8
41	171
43	999
44	25
45	5
50	3
53	4
55	15
57	137
58	412
59	22
71	43
72	6
85	51
100	57
