Mass spectrum: 1,7,7-TRIMETHYLBICYCLO(2.2.1)HEPTAN-2,3-DIONE; EI-MS
Formula: C10H14O2
Exact mass: 166.09938
Instrument type: EI-MS
m/z	relative intensity
28	56
39	207
41	529
55	48
67	162
69	883
75	124
83	60
95	999
105	138
110	129
122	11
123	131
138	326
