Mass spectrum: ISOPROPYL ORTHO TOLUATE; EI-MS
Name: ORTHO TOLUIC ACID ISOPROPYL ESTER
Formula: C11H14O2
Exact mass: 178.09938
Instrument type: EI-MS
m/z	relative intensity
27	45
39	111
41	98
43	116
51	19
59	10
63	38
65	155
77	31
79	14
89	82
90	250
91	601
92	58
118	999
119	803
120	71
135	25
136	527
137	46
178	144
179	19
