Mass spectrum: DIMETHYL SUCCINYLSUCCINATE; EI-MS
Name: DIMETHYL 3,8-DIOXA-4,7-DIOXOCYCLOOCTANE-1,2-DICARBOXYLATE
Formula: C10H12O8
Exact mass: 260.05322
Instrument type: EI-MS
m/z	relative intensity
15	361
26	28
27	225
29	89
31	102
39	93
40	67
41	127
42	54
43	75
45	64
51	43
52	86
53	233
54	128
55	535
56	39
57	32
59	220
63	11
68	99
69	168
70	22
71	19
79	30
80	72
81	126
82	79
83	100
85	57
86	52
87	210
95	9
96	380
97	52
98	47
99	39
101	32
107	50
108	153
109	156
110	72
111	12
112	36
113	226
114	51
115	72
119	22
125	32
128	999
129	66
135	64
136	427
137	550
138	50
139	14
140	73
141	56
142	4
151	22
155	6
162	20
163	37
164	146
165	254
166	24
167	124
168	141
169	129
170	7
178	292
179	45
181	48
194	19
195	62
196	564
197	212
198	18
199	113
200	18
210	105
211	11
213	90
227	21
228	630
229	69
230	5
