Mass spectrum: DIN-DECYL ADIPATE; EI-MS
Formula: C26H50O4
Exact mass: 426.37091
Instrument type: EI-MS
m/z	relative intensity
45	21
54	315
55	193
56	313
58	22
60	21
67	28
68	5
69	170
70	161
71	144
73	3
82	53
83	140
84	88
85	11
87	126
96	22
97	74
98	4
99	25
100	64
101	133
102	2
111	156
112	47
128	23
129	999
130	58
140	63
141	32
147	3
185	33
226	35
227	91
240	6
268	26
269	805
270	145
287	28
288	51
426	36
427	33
