Mass spectrum: 2-TERT-BUTYLMERCAPTO-3-PICOLINE; EI-MS
Formula: C10H15NS
Exact mass: 181.09252
Instrument type: EI-MS
m/z	relative intensity
29	70
39	110
41	100
57	10
65	70
78	50
79	80
80	1
81	120
92	60
124	130
125	999
126	110
127	50
181	60
182	10
