Mass spectrum: CIS-BICYCLO(4.4.0)DECANE; EI-MS
Name: CIS-DECALINE
Formula: C10H18
Exact mass: 138.14085
Instrument type: EI-MS
m/z	relative intensity
27	143
28	36
29	143
39	26
40	48
41	500
42	48
43	5
51	30
52	22
53	143
54	20
55	369
56	30
57	13
65	5
66	60
67	999
68	357
69	19
70	22
77	71
78	16
79	13
80	71
81	929
82	643
83	12
91	30
93	38
94	27
95	51
96	893
97	107
109	310
110	10
123	11
138	643
139	71
