Mass spectrum: 2-ETHYLHEXYL ACETATE; EI-MS
Formula: C10H20O2
Exact mass: 172.14633
Instrument type: EI-MS
m/z	relative intensity
28	16
29	11
41	48
42	50
43	450
44	11
55	194
56	249
57	417
58	18
61	85
68	18
69	103
70	999
71	127
72	15
73	100
74	183
75	25
82	49
83	291
84	151
85	14
86	76
97	27
98	27
99	13
111	34
112	351
113	33
