Mass spectrum: 2-METHYL-2-BUTANOL; EI-MS
Name: 1,1-DIMETHYLPROPANOL
Formula: C5H12O
Exact mass: 88.08882
Instrument type: EI-MS
m/z	relative intensity
15	38
26	15
27	130
29	98
31	227
39	80
41	146
42	30
43	291
44	12
45	112
53	16
55	341
56	16
57	20
58	14
59	999
60	31
71	62
73	615
74	24
