Mass spectrum: 1,2-CYCLOHEXANEDIONE; EI-MS
Formula: C6H8O2
Exact mass: 112.05243
Instrument type: EI-MS
m/z	relative intensity
14	14
15	58
25	13
26	140
27	615
28	197
29	207
30	13
31	41
32	13
37	39
38	82
39	432
40	42
41	315
42	284
43	452
44	34
49	20
50	69
51	70
52	33
53	112
54	37
55	996
56	714
57	118
65	33
66	47
67	23
69	146
70	385
71	216
81	10
82	13
83	622
84	199
97	22
111	15
112	999
113	60
