Mass spectrum: 2,3,5,6-TETRAMETHYL-2,5-CYCLOHEXADIENE-1,4-DIONE; EI-MS
Name: TETRAMETHYL-P-BENZOQUINONE
Formula: C10H12O2
Exact mass: 164.08373
Instrument type: EI-MS
m/z	relative intensity
30	23
32	12
37	14
38	73
39	999
40	75
41	142
42	21
43	119
44	32
45	14
49	12
50	163
51	344
52	229
53	660
54	865
55	158
62	18
63	49
64	15
65	101
66	52
67	148
68	14
74	11
77	192
78	37
79	80
80	21
81	23
82	181
83	44
91	204
92	37
93	479
94	46
103	13
105	18
107	70
108	111
109	13
110	34
117	13
119	14
120	18
121	734
122	64
135	120
136	384
137	38
149	14
163	11
164	455
165	58
