Mass spectrum: 2-METHYL-2-PENTEN-4-ONE; EI-MS
Name: 4-METHYL-3-PENTEN-2-ONE
Formula: C6H10O
Exact mass: 98.07316
Instrument type: EI-MS
m/z	relative intensity
14	13
15	121
26	39
27	317
29	370
37	19
38	61
39	398
40	42
41	112
42	56
43	593
44	10
50	59
51	72
52	21
53	140
54	18
55	999
56	49
67	13
79	16
82	11
83	978
84	54
98	425
99	25
