Mass spectrum: 1-PHENYLSULFONYLMETHYL-2,6,6-TRIMETHYLCYCLOHEXENE; EI-MS
Formula: C16H22O2S
Exact mass: 278.13405
Instrument type: EI-MS
m/z	relative intensity
27	9
29	13
39	19
41	10
43	31
51	23
53	28
55	6
57	39
65	13
67	56
69	9
77	78
78	16
79	50
81	22
91	39
93	63
94	8
95	31
96	20
107	44
109	23
121	8
122	17
136	56
137	999
138	11
141	4
142	1
143	12
144	0
145	1
149	2
278	11
279	2
