Mass spectrum: 4-METHYL-1,3-DIOXANE; EI-MS
Formula: C5H10O2
Exact mass: 102.06808
Instrument type: EI-MS
m/z	relative intensity
15	22
27	124
28	326
29	217
30	107
31	364
39	85
40	26
41	191
42	332
43	999
44	160
45	386
55	815
56	43
57	221
58	167
59	75
61	22
71	86
72	739
73	82
87	219
101	831
102	47
103	67
