Mass spectrum: DIMETHYL DISULFIDE; EI-MS
Formula: C2H6S2
Exact mass: 93.99109
Instrument type: EI-MS
m/z	relative intensity
14	26
15	93
32	30
44	38
45	671
46	350
47	240
48	113
49	37
61	141
64	128
66	11
78	30
79	584
80	17
81	52
94	999
95	40
96	94
