Mass spectrum: 3,4-DIMETHYLBENZENAMINE; EI-MS
Name: 3,4-XYLIDINE
Formula: C8H11N
Exact mass: 121.08915
Instrument type: EI-MS
m/z	relative intensity
38	15
39	111
41	35
42	41
43	15
47	17
50	33
51	33
52	32
53	100
54	40
59	21
60	17
61	22
63	19
65	96
66	18
69	28
77	200
78	47
79	42
80	28
89	12
91	84
92	30
93	84
94	21
103	25
104	35
105	39
106	584
107	50
118	45
119	31
120	618
121	999
122	80
