Mass spectrum: BUTYL N-TRIFLUOROACETYL 1-AMINOETHYL PHOSPHONATE; EI-MS
Formula: C12H23F3NO4P
Exact mass: 333.13168
Instrument type: EI-MS
m/z	relative intensity
55	20
56	48
57	68
65	18
69	70
70	53
72	14
81	1
82	84
83	819
91	12
92	5
93	17
96	24
97	21
99	17
106	16
108	16
109	65
110	3
111	19
121	12
122	19
123	51
124	83
125	16
126	14
136	4
137	80
138	502
139	999
140	91
141	148
152	123
153	12
155	11
165	16
179	48
192	14
194	18
195	18
203	18
204	278
205	1
206	31
208	13
211	58
221	8
222	400
223	20
248	17
260	4
264	13
277	14
278	64
333	1
334	15
335	2
