Mass spectrum: ETHYL CROTONATE; EI-MS
Formula: C6H10O2
Exact mass: 114.06808
Instrument type: EI-MS
m/z	relative intensity
40	122
42	21
43	14
45	34
55	10
68	53
69	999
70	54
71	21
86	88
87	25
99	319
100	19
114	30
