Mass spectrum: 4-HYDROXYBENZOIC ACID METHYL ESTER; EI-MS
Name: METHYL PARA-HYDROXYBENZOATE
Formula: C8H8O3
Exact mass: 152.04734
Instrument type: EI-MS
m/z	relative intensity
37	9
38	26
39	119
50	2
51	11
52	6
53	28
61	1
62	28
63	59
64	35
65	17
66	19
74	10
75	8
92	3
93	284
94	22
95	7
107	1
108	5
120	9
121	999
122	8
123	13
151	18
152	343
153	38
