Mass spectrum: 1-ETHYL-2-METHYL-DIHYDROINDOLE; EI-MS
Formula: C11H15N
Exact mass: 161.12045
Instrument type: EI-MS
m/z	relative intensity
28	8
29	9
37	1
38	7
39	40
41	17
42	1
45	1
50	14
51	40
52	16
53	6
54	4
55	3
56	3
64	14
65	56
66	9
67	3
68	2
69	2
70	2
71	6
72	4
73	19
74	6
75	11
76	15
77	67
78	19
79	10
80	22
81	3
82	1
86	1
87	3
88	5
89	59
90	51
91	156
92	15
93	2
94	2
95	2
96	2
97	1
102	18
103	36
104	16
105	13
106	7
107	1
113	4
114	3
115	52
116	26
117	213
118	371
119	38
120	5
121	2
126	1
127	8
128	16
129	17
130	173
131	78
132	51
133	33
134	4
140	3
141	4
142	11
143	30
144	281
145	53
146	999
147	143
148	8
149	2
157	8
158	20
159	158
160	50
161	445
162	62
163	5
165	1
