Mass spectrum: DIBENZYL ETHER; EI-MS
Formula: C14H14O
Exact mass: 198.10447
Instrument type: EI-MS
m/z	relative intensity
27	13
39	80
41	18
50	24
51	90
52	23
63	34
64	11
65	174
66	10
77	160
78	26
79	181
80	11
89	28
90	20
91	785
92	999
93	67
105	27
107	135
