Mass spectrum: GAMMA-BUTYROLACTONE; EI-MS
Formula: C4H6O2
Exact mass: 86.03678
Instrument type: EI-MS
m/z	relative intensity
13	10
14	26
15	21
26	152
27	318
28	701
29	283
30	32
31	25
37	31
38	38
39	144
40	114
41	409
42	999
43	30
44	22
53	23
55	57
56	199
57	51
85	71
86	215
87	15
