Mass spectrum: 5-TERT-BUTYLMERCAPTO-2-PICOLINE; EI-MS
Formula: C10H15NS
Exact mass: 181.09252
Instrument type: EI-MS
m/z	relative intensity
29	120
32	90
39	100
41	23
53	100
57	430
81	90
84	1
97	50
124	100
125	999
126	1
127	50
166	30
181	140
182	17
