Mass spectrum: 3-METHYL-4-HYDROXYBENZOPHENONE; EI-MS
Formula: C14H12O2
Exact mass: 212.08373
Instrument type: EI-MS
m/z	relative intensity
39	28
51	70
53	24
63	13
77	258
78	37
92	51
105	149
107	64
135	999
136	88
183	10
197	37
212	422
213	65
