Mass spectrum: ERUCIC ACID TRIMETHYLSILYL ESTER; EI-MS
Name: CIS-13-DOCOSENOIC ACID TRIMETHYLSILYL ESTER
Formula: C25H50O2Si
Exact mass: 410.35801
Instrument type: EI-MS
m/z	relative intensity
53	126
54	235
55	999
56	16
57	156
61	100
67	351
68	11
69	365
73	914
75	949
81	35
82	203
83	324
84	132
95	29
96	235
97	227
98	176
109	17
111	115
117	867
129	584
130	11
131	138
132	135
137	100
143	10
145	259
199	100
395	209
396	64
