Mass spectrum: 3-PENTANOL; EI-MS
Formula: C5H12O
Exact mass: 88.08882
Instrument type: EI-MS
m/z	relative intensity
27	55
28	27
29	154
30	21
31	963
32	12
39	30
41	489
42	57
43	125
45	79
55	70
57	142
58	266
59	999
60	110
69	13
70	11
71	249
72	14
87	22
88	3
