Mass spectrum: 1,3-BUTADIENE; EI-MS
Name: BUTADIENE 1,3
Formula: C4H6
Exact mass: 54.04695
Instrument type: EI-MS
m/z	relative intensity
12	14
13	16
14	26
15	22
25	46
25.5	36
26	252
27	601
28	411
29	12
36	18
37	82
38	87
39	999
40	35
48	22
49	101
50	278
51	240
52	113
53	598
54	846
55	38
