Mass spectrum: FURFURYL HEXANOATE; EI-MS
Formula: C11H16O3
Exact mass: 196.10994
Instrument type: EI-MS
m/z	relative intensity
26	11
27	116
29	62
38	14
39	81
41	88
42	31
43	144
50	13
51	26
52	120
53	152
54	10
55	29
69	27
70	12
71	62
80	88
81	999
82	111
95	23
96	13
97	42
98	235
99	82
196	95
