Mass spectrum: N,N'-DIMETHYL-2,2'-BIPYRROLIDINE; EI-MS
Formula: C10H20N2
Exact mass: 168.16265
Instrument type: EI-MS
m/z	relative intensity
57	29
70	433
84	999
113	434
