Mass spectrum: AMYL ORTHO TOLUATE; EI-MS
Name: ORTHO TOLUIC ACID AMYL ESTER
Formula: C13H18O2
Exact mass: 206.13068
Instrument type: EI-MS
m/z	relative intensity
27	62
29	95
39	81
41	125
42	67
43	389
55	68
63	29
65	176
70	68
71	45
77	25
79	11
89	48
90	110
91	558
92	51
93	31
118	999
119	905
120	81
135	40
136	864
137	324
138	25
206	119
207	19
