Mass spectrum: 2-FLUOROANILINE; EI-MS
Formula: C6H6FN
Exact mass: 111.04843
Instrument type: EI-MS
m/z	relative intensity
27	10
28	48
31	12
37	11
38	27
39	47
40	11
41	40
50	17
51	20
52	54
56	18
57	89
58	11
61	10
62	18
63	72
64	130
65	54
72	13
75	11
78	10
81	19
82	17
83	176
84	173
85	26
90	16
91	84
92	11
110	45
111	999
112	73
