Mass spectrum: GAMMA-NONALACTONE; EI-MS
Formula: C9H16O2
Exact mass: 156.11503
Instrument type: EI-MS
m/z	relative intensity
26	12
27	132
28	54
29	238
39	58
41	122
42	44
43	74
44	13
53	13
54	16
55	80
56	81
57	51
67	12
69	21
70	23
71	16
72	20
83	16
84	20
85	999
86	41
96	15
97	11
99	21
100	42
101	16
114	24
128	23
138	11
