Mass spectrum: 2-(4-METHOXYPHENYL)ETHYL ACETATE; EI-MS
Name: PARA-METHOXYPHENETHYL ACETATE
Formula: C11H14O3
Exact mass: 194.09429
Instrument type: EI-MS
m/z	relative intensity
18	24
28	24
43	104
51	1
55	8
58	8
65	16
67	1
71	8
77	48
78	32
79	2
90	8
91	72
92	16
102	1
103	16
104	8
105	16
106	1
107	8
108	8
119	120
120	2
121	408
122	48
123	8
134	999
135	120
136	16
194	16
195	8
