Mass spectrum: ETHYL PHENYL ETHER; EI-MS
Name: PHENETOLE
Formula: C8H10O
Exact mass: 122.07316
Instrument type: EI-MS
m/z	relative intensity
27	44
28	12
29	50
39	78
40	35
50	22
51	63
55	30
63	20
65	74
66	144
77	82
94	999
95	65
107	12
122	394
123	35
