Mass spectrum: 3-BETA-HYDROXY-TETRAHYDROALANTOLACTONE; EI-MS
Formula: C15H24O3
Exact mass: 252.17254
Instrument type: EI-MS
m/z	relative intensity
43	136
44	36
45	16
55	36
56	16
57	67
58	14
59	21
67	44
68	45
69	83
70	28
71	23
74	199
75	55
79	34
80	67
81	195
82	134
83	84
84	123
85	44
91	53
92	21
93	238
94	257
95	407
96	483
97	461
98	56
99	16
105	207
106	76
107	255
108	852
109	588
110	108
111	57
112	28
113	24
117	15
118	20
119	221
120	192
121	999
122	437
123	250
124	95
125	108
126	46
131	64
132	18
133	135
134	132
135	206
136	110
137	71
138	215
139	217
140	32
143	106
144	15
145	251
146	32
147	146
148	88
149	135
150	49
151	99
152	51
153	37
159	34
160	157
161	674
162	134
163	39
164	52
165	39
166	102
167	51
173	84
174	14
175	210
176	31
177	84
178	86
179	216
180	49
189	16
190	244
191	57
192	38
193	269
194	84
195	316
196	98
201	14
205	49
206	31
208	899
209	141
210	14
219	251
220	34
234	160
235	27
252	153
253	27
