Mass spectrum: 3'-CHLOROFLAVONE; EI-MS
Name: 2-(3-CHLOROPHENYL)-4H-CHROMEN-4-ONE
Formula: C15H9ClO2
Exact mass: 256.02911
Instrument type: EI-MS
m/z	relative intensity
31	18
36	16
38	18
39	4
45	25
50	41
51	59
62	2
63	89
64	110
74	44
75	7
76	30
77	57
82	27
82.5	3
87	14
89	18
92	309
93	2
99	14
100	21
101	66
105	3
114	115
114.5	13
115	43
120	57
121	47
129	20
136	128
137	1
138	41
139	21
149	74
163	4
164	30
165	127
166	18
221	8
222	15
228	325
229	46
230	11
231	15
255	22
256	999
257	17
258	333
259	48
