Mass spectrum: 3-HEPTANONE; EI-MS
Name: ETHYL BUTYL KETONE
Formula: C7H14O
Exact mass: 114.10447
Instrument type: EI-MS
m/z	relative intensity
15	22
26	36
27	320
28	12
29	858
30	19
31	11
39	12
40	15
41	405
42	39
43	20
51	12
53	19
55	43
56	4
57	999
58	49
71	35
72	37
59	24
86	543
87	34
114	24
115	27
