Mass spectrum: 4-DIMETHYLAMINO-2(5H)-FURANONE; EI-MS
Formula: C6H9NO2
Exact mass: 127.06333
Instrument type: EI-MS
m/z	relative intensity
41	5
42	16
43	45
44	29
45	12
54	3
55	37
56	14
57	5
58	3
68	43
69	262
70	166
71	20
72	3
81	4
82	33
83	12
84	15
85	3
95	2
96	5
97	12
98	84
99	75
100	5
109	2
110	3
111	2
112	16
113	3
125	2
126	40
127	999
128	84
129	9
