Mass spectrum: 6-METHYL-5-METHYLENE-3,4-BENZO-2-OXABICYCLO(4.1.0)HEPT-3-ENE; EI-MS
Formula: C12H12O
Exact mass: 172.08882
Instrument type: EI-MS
m/z	relative intensity
39	360
41	140
43	210
50	170
51	350
63	250
64	130
65	160
74	70
75	110
76	140
77	250
78	100
79	30
89	120
91	160
102	120
103	120
104	70
105	50
107	110
115	300
117	270
119	150
121	100
127	230
128	540
129	380
130	70
131	350
134	80
141	50
144	80
145	280
146	100
157	660
158	110
171	320
172	999
173	170
174	170
175	50
