Mass spectrum: 1-OCTYL-2,2,6,6-TETRAMETHYL-2,6-DISILAPIPERIDINE; EI-MS
Formula: C15H35NSi2
Exact mass: 285.2308
Instrument type: EI-MS
m/z	relative intensity
44	10
59	62
73	35
85	15
86	13
88	15
99	11
117	12
144	11
158	13
184	11
186	999
187	203
188	85
189	11
270	58
271	14
284	11
285	37
