Mass spectrum: PROPYLBENZENE; EI-MS
Formula: C9H12
Exact mass: 120.0939
Instrument type: EI-MS
m/z	relative intensity
27	24
39	57
41	26
50	19
51	48
52	13
63	26
65	100
77	35
78	57
79	16
89	18
91	999
92	99
103	13
105	36
115	13
120	203
121	20
