Mass spectrum: 2-(1,3-DIMETHYL-3-BUTENYL)CYCLOHEXANONE; EI-MS
Formula: C12H20O
Exact mass: 180.15142
Instrument type: EI-MS
m/z	relative intensity
55	149
67	96
70	91
79	71
81	61
82	80
83	372
91	95
93	88
97	80
98	632
105	677
106	114
107	86
119	303
120	277
125	224
133	134
137	77
145	71
147	708
148	90
162	999
163	119
180	116
