Mass spectrum: PERILLALDEHYDE; EI-MS
Name: 4-(1-METHYLETHENYL)-1-CYCLOHEXENE-1-CARBALDEHYDE
Formula: C10H14O
Exact mass: 150.10447
Instrument type: EI-MS
m/z	relative intensity
41	101
43	85
53	137
55	101
67	431
68	999
79	513
80	125
93	279
95	200
107	422
108	201
121	222
122	251
132	45
135	213
150	219
151	24
