Mass spectrum: CHLOROACETIC ACID ISOPROPYL ESTER; EI-MS
Name: ISOPROPYL CHLOROACETATE
Formula: C5H9ClO2
Exact mass: 136.02911
Instrument type: EI-MS
m/z	relative intensity
14	23
15	51
26	14
27	190
28	14
29	25
31	16
38	11
39	84
40	18
41	287
42	107
43	999
44	34
45	71
48	11
49	172
51	53
59	81
66	10
67	619
68	16
69	193
95	49
97	17
121	232
122	11
123	76
