Mass spectrum: 1H-PYRIMIDO(1,2-A)QUINOLIN-1-ONE; EI-MS
Formula: C12H8N2O
Exact mass: 196.06366
Instrument type: EI-MS
m/z	relative intensity
77	94
84	92
98	58
101	26
102	85
114	82
128	660
129	12
149	62
141	48
168	999
169	13
195	60
196	920
197	120
