Mass spectrum: ETHYL BENZOATE; EI-MS
Name: BENZOIC ACID ETHYL ESTER
Formula: C9H10O2
Exact mass: 150.06808
Instrument type: EI-MS
m/z	relative intensity
51	36
76	11
77	320
78	25
105	999
106	90
122	336
123	26
135	9
149	22
150	164
151	15
