Mass spectrum: 2,3,6-TRIMETHYLPYRIDINE; EI-MS
Formula: C8H11N
Exact mass: 121.08915
Instrument type: EI-MS
m/z	relative intensity
26	44
27	186
39	215
40	11
41	63
42	129
51	172
52	23
53	127
63	47
65	43
77	186
78	40
79	339
80	13
91	23
93	5
104	15
105	39
106	164
120	595
121	999
122	92
