Mass spectrum: 2-(2-AMINO-2-METHYLPROPYL)-1-METHYL-3-(2,2,6,6-TETRAMETHYL-1,2,3,6-TETRAHYDRO-4-PYRIDYL)INDOLE; EI-MS
Formula: C22H33N3
Exact mass: 339.26745
Instrument type: EI-MS
m/z	relative intensity
58	999
77	10
105	21
128	1
130	20
180	27
181	27
194	5
195	42
210	90
225	198
226	4
251	246
252	48
266	20
267	20
268	44
282	121
324	15
339	18
