Mass spectrum: 3-ETHOXY-4-HYDROXYBENZALDEHYDE; EI-MS
Name: ETHYL VANILLIN
Formula: C9H10O3
Exact mass: 166.06299
Instrument type: EI-MS
m/z	relative intensity
26	19
27	121
28	104
29	117
32	21
38	11
39	48
50	39
51	75
52	63
53	79
55	33
62	20
63	49
64	26
65	32
79	33
80	16
81	130
82	27
91	15
92	12
108	15
109	116
110	44
136	15
137	999
138	355
139	31
166	493
167	43
