Mass spectrum: BORNYL ACETATE; EI-MS
Name: ENDO-1,7,7-TRIMETHYLBICYCLO(2.2.1)HEPTAN-2-YL ACETATE
Formula: C12H20O2
Exact mass: 196.14633
Instrument type: EI-MS
m/z	relative intensity
15	64
27	93
28	13
29	103
39	109
40	24
41	350
42	26
43	726
44	22
51	20
52	13
53	92
54	17
55	185
56	17
57	33
65	31
66	15
67	120
68	47
69	147
70	25
71	61
72	41
77	57
78	15
79	86
80	167
81	100
82	107
83	75
84	48
85	14
91	54
92	124
93	438
94	79
95	999
96	87
97	24
98	13
99	14
105	26
107	72
108	189
109	140
110	145
111	61
113	23
121	390
122	39
123	17
125	10
135	17
136	526
137	72
139	17
153	12
154	103
155	11
196	84
197	12
