Mass spectrum: 1-METHOXYOCTADECANE; EI-MS
Formula: C19H40O
Exact mass: 284.30792
Instrument type: EI-MS
m/z	relative intensity
31	22
33	28
39	25
41	271
42	89
43	601
45	999
46	26
47	1
48	2
49	3
54	80
55	655
56	409
57	805
58	53
59	29
60	2
67	128
68	539
69	864
70	491
71	434
72	20
73	2
74	1
75	2
79	10
81	106
82	674
83	795
84	388
86	22
91	11
93	10
95	54
96	223
97	968
98	258
99	78
109	23
110	105
111	513
112	229
113	54
117	13
118	1
121	8
123	19
124	78
125	303
126	156
127	44
129	2
133	8
137	22
138	48
139	134
140	109
141	24
149	11
152	39
153	68
154	76
166	25
167	37
168	57
181	30
182	47
183	23
191	1
195	21
196	52
221	11
224	134
225	32
252	224
253	51
