Mass spectrum: UNDECANAL; EI-MS
Formula: C11H22O
Exact mass: 170.16707
Instrument type: EI-MS
m/z	relative intensity
39	319
40	79
41	999
42	245
43	942
44	381
45	169
46	39
51	31
53	105
54	151
55	568
56	348
57	701
58	50
66	68
67	304
68	389
69	271
70	229
71	323
72	79
81	234
82	452
83	169
84	138
85	137
95	180
96	216
97	165
98	79
109	70
110	69
123	47
124	60
126	93
