Mass spectrum: 2,6,10-TRIMETHYLDODECANE; EI-MS
Formula: C15H32
Exact mass: 212.2504
Instrument type: EI-MS
m/z	relative intensity
56	233
57	999
69	147
70	77
112	124
169	20
182	31
183	8
197	35
212	47
