Mass spectrum: 4-METHYL-2-PENTANONE; EI-MS
Formula: C6H12O
Exact mass: 100.08882
Instrument type: EI-MS
m/z	relative intensity
15	39
18	53
27	85
29	83
38	13
39	141
41	225
42	55
43	999
44	19
53	10
55	11
56	13
57	248
58	416
59	24
67	14
85	190
86	11
100	189
101	13
