Mass spectrum: ORTHO BROMO ISOBUTYLBENZOATE; EI-MS
Formula: C11H13BrO2
Exact mass: 256.00989
Instrument type: EI-MS
m/z	relative intensity
27	39
29	89
39	49
41	153
43	32
50	95
51	23
55	31
56	499
57	57
73	24
74	27
75	170
76	200
77	46
104	38
105	13
155	231
156	20
157	236
158	15
159	12
183	999
184	78
185	973
186	76
200	180
201	509
202	216
203	497
204	36
