Mass spectrum: 3-METHYLPYRAZOLE; EI-MS
Formula: C4H6N2
Exact mass: 82.0531
Instrument type: EI-MS
m/z	relative intensity
26	51
27	147
28	176
29	4
30	11
37	10
38	25
39	7
40	78
41	95
42	104
43	2
50	62
51	79
52	57
53	11
54	278
55	85
56	18
66	1
67	23
68	15
80	12
81	66
82	999
83	53
