Mass spectrum: 2-METHOXYETHANOL; EI-MS
Name: METHYL CELLOSOLVE
Formula: C3H8O2
Exact mass: 76.05243
Instrument type: EI-MS
m/z	relative intensity
15	56
27	14
29	71
31	104
43	40
45	999
46	44
47	99
58	46
76	95
