Mass spectrum: 1,2,3,4-TETRAHYDRO-CIS-3-METHYLNAPHTHALEN-1-OL; EI-MS
Formula: C11H14O
Exact mass: 162.10447
Instrument type: EI-MS
m/z	relative intensity
91	10
92	10
105	40
118	1
119	30
120	450
121	40
128	1
129	560
130	60
142	3
143	3
144	999
145	120
146	10
147	1
160	3
161	130
162	350
163	40
