Mass spectrum: 1-HEXANOL; EI-MS
Formula: C6H14O
Exact mass: 102.10447
Instrument type: EI-MS
m/z	relative intensity
27	22
29	61
31	89
39	16
41	210
42	286
43	414
44	18
45	20
54	24
55	449
56	999
57	71
68	10
69	343
70	38
71	21
73	21
83	27
84	179
85	39
