Mass spectrum: ESTRONE TRIMETHYL ETHER; EI-MS
Formula: C21H30O2Si
Exact mass: 342.20151
Instrument type: EI-MS
m/z	relative intensity
41	13
43	13
55	12
57	10
67	14
73	98
74	14
79	10
81	21
93	11
95	11
97	25
107	17
109	14
123	11
150	13
163	24
177	38
178	15
179	22
180	19
189	10
191	10
192	77
193	25
194	11
201	11
202	6
203	33
204	19
205	45
206	12
207	14
215	14
216	13
217	73
218	305
219	95
220	26
221	13
229	27
230	18
231	58
232	52
233	18
242	33
243	23
244	142
245	54
246	19
257	299
258	97
259	24
260	8
269	8
270	8
271	18
272	11
282	7
283	13
284	10
285	41
286	40
287	9
298	11
299	14
313	12
314	31
315	10
327	88
328	30
340	10
341	28
342	999
343	299
344	83
345	15
