Mass spectrum: (4BETA)-ISOPROPENYL-1(2H)-METHYLENE-3,4,(4ABETA),5,8,(8AALPHA)-HEXAHYDRONAPHTHALENE-6(7H)-ONE ETHYLENE ACETAL; EI-MS
Formula: C16H24O2
Exact mass: 248.17763
Instrument type: EI-MS
m/z	relative intensity
32	186
39	18
41	45
42	4
43	28
44	18
53	19
55	9
67	18
73	27
77	31
79	4
86	133
87	22
91	42
93	2
99	999
100	61
105	26
107	0
112	18
119	22
120	16
133	0
146	29
165	54
180	17
186	2
192	93
205	17
248	82
249	16
