Mass spectrum: (1R*,2R*,11R*,14S*)-1,14-EPOXY-4,8,14,15,15-PENTAMETHYLBICYCLO(9.3.1)PENTADECA-4(E),8(E)-DIEN-2-YLMETHANOL; EI-MS
Formula: C21H34O2
Exact mass: 318.25588
Instrument type: EI-MS
m/z	relative intensity
57	139
59	39
69	74
80	2
81	55
83	100
84	222
86	63
93	19
94	94
95	135
97	6
98	242
107	411
108	47
110	1
114	114
116	559
117	61
119	1
120	63
121	188
123	141
124	2
131	27
133	39
134	712
135	999
136	119
137	98
138	33
139	4
145	100
146	78
147	17
148	36
149	215
150	23
153	27
155	15
156	31
157	414
159	29
160	14
161	220
164	21
165	62
173	7
175	14
176	47
177	72
181	4
182	107
183	24
185	21
189	17
190	20
201	47
202	242
213	1
219	34
227	46
232	232
233	2
242	13
245	24
250	633
251	8
255	149
270	179
273	43
288	15
303	15
317	35
318	46
