Mass spectrum: 2-PHENYL-1-PROPANOL; EI-MS
Name: BETA-METHYLPHENETHYL ALCOHOL
Formula: C9H12O
Exact mass: 136.08882
Instrument type: EI-MS
m/z	relative intensity
15	26
27	45
28	16
29	85
30	13
31	202
32	58
38	12
39	54
41	11
43	17
50	40
51	89
52	26
53	15
62	14
63	43
65	36
74	19
75	14
76	15
77	212
78	94
79	182
80	12
89	17
91	145
92	12
102	21
103	159
104	89
105	999
106	288
107	21
115	13
117	14
118	15
136	196
137	20
