Mass spectrum: META METHYL ACETOPHENONE; EI-MS
Formula: C9H10O
Exact mass: 134.07316
Instrument type: EI-MS
m/z	relative intensity
15	40
27	32
38	31
39	214
41	48
43	241
45.5	23
50	54
51	95
52	20
62	40
63	119
64	28
65	319
66	16
77	24
89	57
90	24
91	825
92	65
119	999
120	86
134	312
135	32
