Mass spectrum: 2-PHENYL-4-METHYL-IMIDAZOLINE; EI-MS
Formula: C10H13N2
Exact mass: 161.10787
Instrument type: EI-MS
m/z	relative intensity
161	120
160	750
159	210
146	220
145	980
131	590
130	370
118	260
117	999
101	580
100	380
90	160
89	150
77	500
76	140
63	80
55	120
51	220
