Mass spectrum: 2,2-DIMETHYLPROPYL ACETATE; EI-MS
Formula: C7H14O2
Exact mass: 130.09938
Instrument type: EI-MS
m/z	relative intensity
17	35
25	185
26	25
28	4
41	60
42	20
43	750
45	3
54	115
55	300
57	999
59	4
67	85
68	20
70	85
71	8
72	520
74	20
88	20
100	2
114	80
115	20
133	20
