Mass spectrum: HALKENDIN; EI-MS
Formula: C13H10O5
Exact mass: 246.05282
Instrument type: EI-MS
m/z	relative intensity
75	140
76	620
104	250
116	190
117	130
132	550
160	760
161	90
175	40
186	40
203	999
204	120
215	40
217	30
231	140
246	570
247	70
