Mass spectrum: METHYL VINYL KETONE; EI-MS
Formula: C4H6O
Exact mass: 70.04186
Instrument type: EI-MS
m/z	relative intensity
15	81
27	137
28	174
29	50
39	113
40	28
41	434
42	59
43	999
44	292
45	24
50	16
51	32
52	16
53	83
54	21
55	244
56	16
57	24
65	37
67	124
68	24
69	128
70	55
71	24
