Mass spectrum: N-(1-ADAMANTYL)-2-METHYLCYCLOHEXANIMINE; EI-MS
Formula: C17H27N
Exact mass: 245.21435
Instrument type: EI-MS
m/z	relative intensity
53	32
55	72
67	92
69	25
77	49
79	156
81	52
91	47
93	123
94	36
107	45
135	999
136	117
188	90
245	243
246	50
