Mass spectrum: 1-METHYL-4-PROPYL-2-PYRAZOLINE; EI-MS
Formula: C7H14N2
Exact mass: 126.1157
Instrument type: EI-MS
m/z	relative intensity
26	8
27	72
28	90
29	4
30	20
38	6
39	58
40	2
41	92
42	318
43	101
44	3
51	5
52	6
53	11
54	2
55	32
56	158
57	15
66	1
67	7
68	17
69	20
70	1
81	15
82	3
83	999
84	9
85	50
95	14
96	5
97	3
98	3
125	25
126	207
127	19
