Mass spectrum: METHYL(BETA-ETHOXYETHYL)HYDRAZONE METHYLETHYLKETONE; EI-MS
Name: 2-BUTANONE (2-ETHOXYETHYL)METHYLHYDRAZONE
Formula: C9H20N2O
Exact mass: 172.15756
Instrument type: EI-MS
m/z	relative intensity
27	65
28	38
29	104
30	4
31	49
39	15
41	42
42	97
43	78
44	91
45	40
54	1
55	17
56	27
57	11
58	2
59	15
68	7
70	136
71	2
72	19
86	8
97	7
99	1
100	41
113	999
114	61
172	9
173	14
