Mass spectrum: PROPYL ACETATE; EI-MS
Formula: C5H10O2
Exact mass: 102.06808
Instrument type: EI-MS
m/z	relative intensity
28	15
29	12
31	27
41	42
42	112
43	999
44	24
57	16
59	76
60	10
61	471
62	12
72	21
73	204
102	6
