Mass spectrum: HEXAMETHYLBENZENE; EI-MS
Formula: C12H18
Exact mass: 162.14085
Instrument type: EI-MS
m/z	relative intensity
41	12
91	17
93	10
105	24
107	14
117	16
119	34
131	20
132	11
133	18
145	11
147	999
148	120
161	60
162	868
163	115
