Mass spectrum: 4-CHLOROBENZOIC ACID METHYL ESTER; EI-MS
Formula: C8H7ClO2
Exact mass: 170.01346
Instrument type: EI-MS
m/z	relative intensity
49	30
50	331
51	152
55	3
57	30
59	65
63	34
73	3
74	187
75	611
76	148
77	3
85	52
111	999
112	56
113	34
135	30
139	336
140	209
141	87
142	48
169	34
170	759
171	5
172	266
