Mass spectrum: 2-METHYLBUTYL 2-METHYLBUTYRATE; EI-MS
Formula: C10H20O2
Exact mass: 172.14633
Instrument type: EI-MS
m/z	relative intensity
26	12
27	186
29	385
31	14
39	133
41	431
42	126
43	526
44	13
45	23
53	19
55	274
56	90
57	999
58	44
69	30
70	939
71	279
72	12
73	11
74	101
85	818
86	47
87	49
102	30
103	166
115	33
144	23
