Mass spectrum: 1,4-DIOXANE; EI-MS
Formula: C4H8O2
Exact mass: 88.05243
Instrument type: EI-MS
m/z	relative intensity
14	13
15	107
26	49
27	98
28	999
29	264
30	145
31	174
42	14
43	140
44	69
45	118
57	125
58	526
59	24
87	57
88	789
89	67
