Mass spectrum: 3-METHYL-5-FLUOROURACIL; EI-MS
Formula: C5H5FN2O2
Exact mass: 144.03351
Instrument type: EI-MS
m/z	relative intensity
28	220
31	110
56	70
58	2
59	120
60	360
87	690
88	1
102	50
114	120
115	90
116	1
144	999
145	160
