Mass spectrum: N,N-DIMETHYLBENZYLAMINE; EI-MS
Formula: C9H13N
Exact mass: 135.1048
Instrument type: EI-MS
m/z	relative intensity
15	49
27	22
28	36
29	14
30	31
31	16
38	17
39	9
40	14
41	39
42	215
43	4
44	101
50	32
51	82
52	2
57	39
58	999
59	35
62	2
63	59
64	20
65	186
66	1
77	49
78	18
89	54
90	2
91	677
92	118
118	50
132	3
134	551
135	960
136	97
