Mass spectrum: 1,3-DIPHENYL-2-PROPEN-1-ONE; EI-MS
Name: CHALCONE
Formula: C15H12O
Exact mass: 208.08882
Instrument type: EI-MS
m/z	relative intensity
39	16
50	42
51	166
63	2
75	23
77	551
89	80
102	7
103	284
104	35
105	291
130	10
131	391
132	38
152	12
165	6
166	10
178	63
179	147
191	1
207	999
208	920
209	120
