Mass spectrum: ALPHA-CHLORO-N-BUTYRIC ACID METHYL ESTER; EI-MS
Formula: C5H9ClO2
Exact mass: 136.02911
Instrument type: EI-MS
m/z	relative intensity
41	75
43	38
44	54
45	16
49	86
51	36
55	130
56	3
57	84
59	999
60	64
61	3
62	27
63	45
65	27
69	16
70	29
74	82
76	112
77	44
78	48
79	132
101	109
109	4
108	533
110	178
