Mass spectrum: ETHYLENE GLYCOL DIETHYL ETHER; EI-MS
Name: 1,2-DIETHOXYETHANE
Formula: C6H14O2
Exact mass: 118.09938
Instrument type: EI-MS
m/z	relative intensity
14	13
15	77
26	19
27	137
28	84
29	374
30	25
31	999
32	11
41	95
42	28
43	417
44	139
45	414
46	17
47	28
58	23
59	761
60	42
61	34
72	64
73	70
74	310
75	19
87	13
88	10
118	5
