Mass spectrum: ALPHA-PHENYLPROPIONIC ACID METHYL ESTER; EI-MS
Formula: C10H12O2
Exact mass: 164.08373
Instrument type: EI-MS
m/z	relative intensity
50	22
51	45
52	14
63	2
70	87
77	108
78	31
79	12
103	75
104	43
105	999
106	9
164	196
165	24
