Mass spectrum: 2-PROPYLFURAN; EI-MS
Formula: C7H10O
Exact mass: 110.07316
Instrument type: EI-MS
m/z	relative intensity
27	70
29	21
39	41
40	11
41	86
43	21
52	13
53	435
54	30
55	10
65	10
66	10
67	15
68	15
81	999
82	138
94	13
95	21
109	12
110	422
111	24
