Mass spectrum: DIBENZOTHIOPHENE; EI-MS
Formula: C12H8S
Exact mass: 184.03467
Instrument type: EI-MS
m/z	relative intensity
63	18
69	20
74	14
75	14
79	52
87	12
89	12
91	22
92	87
113	17
114	14
115	12
138	19
139	143
140	24
150	11
151	18
152	79
153	12
158	18
182	22
183	48
184	999
185	161
186	62
