Mass spectrum: PHENYL-3-TRIMETHYLSTANNYLPROPYL SULFIDE; EI-MS
Name: 1-PHENYLTHIO-3-TRIMETHYLSTANNYLPROPANE
Formula: C12H20SSn
Exact mass: 316.03077
Instrument type: EI-MS
m/z	relative intensity
45	248
77	406
91	167
109	162
123	274
131	179
133	303
135	415
150	282
162	162
163	534
164	218
165	667
227	192
229	269
255	316
256	222
257	543
258	239
259	765
297	440
298	286
299	722
300	355
301	999
302	179
303	192
305	188
