Mass spectrum: TRANS-FLAVAN-4-OL; EI-MS
Name: 4-HYDROXY-TRANS-2-PHENYLCHROMAN
Formula: C15H14O2
Exact mass: 226.09938
Instrument type: EI-MS
m/z	relative intensity
43	100
94	30
104	999
105	14
121	90
122	260
123	20
131	6
164	27
175	60
207	180
208	56
209	90
210	10
226	430
227	80
