Mass spectrum: PENTYL BUTYRATE; EI-MS
Name: AMYL BUTYRATE
Formula: C9H18O2
Exact mass: 158.13068
Instrument type: EI-MS
m/z	relative intensity
15	15
26	15
27	294
28	60
29	223
31	17
39	146
40	26
41	396
42	351
43	983
44	32
45	21
53	12
55	234
56	19
57	17
60	86
61	23
69	73
70	583
71	999
72	40
73	54
85	11
86	14
88	53
89	605
90	23
101	30
115	14
