Mass spectrum: ACETALDEHYDE ETHYL ISOAMYL ACETAL; EI-MS
Name: ACETALDEHYDE ETHYL 3-METHYLBUTYL ACETAL
Formula: C9H20O2
Exact mass: 160.14633
Instrument type: EI-MS
m/z	relative intensity
15	25
26	12
27	164
29	176
31	83
39	65
41	173
42	45
43	592
44	88
45	780
46	18
47	34
53	12
55	122
56	11
57	14
61	14
69	10
70	35
71	531
72	39
73	999
74	33
75	37
115	101
145	102
