Mass spectrum: 4-METHOXYPHENYLALDEHYDE TRIMETHYLENE ACETAL; EI-MS
Formula: C11H14O3
Exact mass: 194.09429
Instrument type: EI-MS
m/z	relative intensity
42	30
108	35
135	52
136	14
137	32
152	40
163	139
164	3
193	694
194	999
195	122
