Mass spectrum: CIS-1,4-CYCLOHEXANEDIOL; EI-MS
Formula: C6H12O2
Exact mass: 116.08373
Instrument type: EI-MS
m/z	relative intensity
41	433
54	925
55	395
57	45
58	999
59	334
69	332
98	62
116	28
