Mass spectrum: FORMANILIDE; EI-MS
Formula: C7H7NO
Exact mass: 121.05276
Instrument type: EI-MS
m/z	relative intensity
29	30
63	29
65	42
66	31
67	14
92	36
93	685
94	78
121	999
122	469
123	35
130	21
132	15
154	10
158	14
160	22
186	11
