Mass spectrum: 4-CYCLOHEXYL-4-METHYL-2-PENTANONE; EI-MS
Formula: C12H22O
Exact mass: 182.16707
Instrument type: EI-MS
m/z	relative intensity
27	67
29	74
39	97
41	304
42	22
43	999
44	18
53	56
54	40
55	250
56	70
57	66
58	46
59	10
65	11
66	14
67	139
68	37
69	117
77	15
79	22
80	49
81	250
82	135
83	141
85	246
86	11
95	41
96	11
98	12
99	136
100	41
109	162
110	11
123	10
124	584
125	109
149	14
