Mass spectrum: 2-PHENOXYETHYL ACETATE; EI-MS
Formula: C10H12O3
Exact mass: 180.07864
Instrument type: EI-MS
m/z	relative intensity
39	26
43	637
44	14
51	6
65	52
77	122
79	49
87	999
88	59
91	23
93	33
94	16
95	21
97	13
98	33
107	5
110	33
120	34
180	46
