Mass spectrum: TRIMETHYLPHOSPHATE; EI-MS
Formula: C3H9O4P
Exact mass: 140.02385
Instrument type: EI-MS
m/z	relative intensity
43	4
45	29
46	8
57	8
58	49
59	5
65	36
66	1
72	2
73	1
78	7
79	354
80	499
81	11
82	3
86	55
93	16
95	321
96	11
97	4
109	411
110	999
111	57
112	13
125	1
127	24
139	14
140	324
141	42
142	12
143	2
