Mass spectrum: METHYL ETHYL ETHER; EI-MS
Formula: C3H8O
Exact mass: 60.05751
Instrument type: EI-MS
m/z	relative intensity
12	22
13	30
14	59
15	26
25	23
26	74
27	195
28	9
29	502
30	45
31	194
32	3
33	24
42	29
43	60
45	999
46	36
59	106
60	258
