Mass spectrum: 2,5-BIS(TRIMETHYLSILYLMETHYL)-5-HYDROXY-8-ISOPROPYL-1,4,4A,5,6,7,8,8A-OCTAHYDRONAPHTHALENE; EI-MS
Formula: C21H42OSi2
Exact mass: 366.27742
Instrument type: EI-MS
m/z	relative intensity
45	50
59	60
73	999
74	88
75	49
91	16
149	46
157	23
164	12
165	60
166	19
175	28
177	25
191	22
204	15
208	70
209	17
217	47
218	12
231	22
259	13
261	28
274	51
275	16
305	15
333	31
348	114
349	38
350	13
