Mass spectrum: 4'-ACETOXY-5,7-DIMETHYLFLAVANONE; EI-MS
Name: 2-(4-ACETOXYPHENYL)-5,7-DIMETHYLCHROMAN-4-ONE
Formula: C19H18O4
Exact mass: 310.12051
Instrument type: EI-MS
m/z	relative intensity
39	30
43	211
65	69
77	5
91	283
92	45
107	109
119	10
120	622
121	49
148	999
149	81
150	56
161	200
162	294
174	2
175	60
250	90
251	31
267	5
268	189
310	589
311	103
