Mass spectrum: 3,5,5-TRIMETHYL-2-CYCLOHEXENONE; EI-MS
Name: ISOPHORONE
Formula: C9H14O
Exact mass: 138.10447
Instrument type: EI-MS
m/z	relative intensity
54	53
55	13
67	18
82	999
83	61
95	50
123	21
138	275
139	28
