Mass spectrum: 1-BUTYL-1-ETHYLHYDRAZINE; EI-MS
Formula: C6H16N2
Exact mass: 116.13135
Instrument type: EI-MS
m/z	relative intensity
27	47
28	33
29	84
30	4
31	22
39	16
41	45
42	4
43	29
44	60
45	226
46	1
55	7
56	35
57	25
58	2
59	33
71	7
73	999
74	3
101	35
115	48
116	133
117	12
