Mass spectrum: CYCLOHEXYL PROPIONATE; EI-MS
Formula: C9H16O2
Exact mass: 156.11503
Instrument type: EI-MS
m/z	relative intensity
29	104
41	33
43	12
54	108
55	129
56	21
57	842
58	28
67	461
68	27
72	64
73	14
74	31
75	381
76	14
81	92
82	999
83	261
84	17
85	11
99	47
100	17
112	31
126	26
