Mass spectrum: 2ALPHA,6,6,8BETA-TETRAMETHYL-5ALPHA-TRICYCLO(6.3.0.0(1,5))UNDEC-10-EN-3-ONE; EI-MS
Formula: C15H22O
Exact mass: 218.16707
Instrument type: EI-MS
m/z	relative intensity
18	999
32	13
42	48
56	8
58	16
108	44
109	13
146	2
147	687
148	38
159	14
162	2
163	14
172	17
175	58
176	4
184	16
189	48
202	12
203	4
216	11
218	257
219	133
