Mass spectrum: DIHYDROJASMONE; EI-MS
Name: 3-METHYL-2-PENTYL-2-CYCLOPENTEN-1-ONE
Formula: C11H18O
Exact mass: 166.13577
Instrument type: EI-MS
m/z	relative intensity
40	64
41	514
42	38
43	13
50	19
51	69
52	55
53	22
54	37
55	217
56	19
57	2
63	16
65	92
66	48
67	40
68	56
69	45
77	104
78	2
79	208
80	34
81	230
82	17
83	20
91	58
93	62
95	23
96	36
97	14
105	18
107	2
108	26
109	247
110	999
111	18
112	13
122	20
123	191
124	9
133	13
136	17
137	204
138	2
150	42
151	620
152	69
166	5
167	33
