Mass spectrum: DIETHYLHYDRAZONE HEXANECARBALDEHYDE; EI-MS
Name: HEPTANAL DIETHYLHYDRAZONE
Formula: C11H24N2
Exact mass: 184.19395
Instrument type: EI-MS
m/z	relative intensity
28	156
29	256
30	244
39	4
40	11
41	150
42	175
43	19
44	228
45	9
53	11
54	2
55	78
56	172
57	66
58	38
59	59
67	10
68	15
69	5
70	78
71	66
72	94
73	6
82	12
83	25
84	12
85	9
86	14
87	244
88	28
95	1
97	22
99	128
100	12
110	1
111	11
112	25
113	250
114	34
115	25
127	75
128	15
141	4
142	14
155	162
156	22
169	999
170	134
171	7
183	31
184	38
185	56
