Mass spectrum: 5-(3,4,4-TRIMETHYLPENTYL)PYRIDINE-2-CARBOXYLIC ACID; EI-MS
Formula: C14H21NO2
Exact mass: 235.15723
Instrument type: EI-MS
m/z	relative intensity
41	229
42	10
43	180
51	2
55	42
56	99
57	999
58	3
65	32
69	22
71	10
85	2
91	61
92	64
93	32
104	1
106	13
119	280
120	16
132	3
133	16
135	16
136	93
137	91
138	54
146	20
147	13
150	10
151	37
164	11
174	32
179	2
180	62
191	72
192	16
202	2
220	64
