Mass spectrum: ACETIC ACID ISOBUTYL ESTER; EI-MS
Name: ISOBUTYL ACETATE
Formula: C6H12O2
Exact mass: 116.08373
Instrument type: EI-MS
m/z	relative intensity
15	30
27	34
28	14
29	39
31	10
39	32
41	106
42	22
43	999
44	24
55	24
56	299
57	32
61	28
71	32
73	174
74	18
86	20
