Mass spectrum: 2-TERT-BUTYLMERCAPTO-3,5-LUTIDINE; EI-MS
Formula: C11H17NS
Exact mass: 195.10817
Instrument type: EI-MS
m/z	relative intensity
29	90
39	110
41	130
57	10
77	80
103	90
104	70
105	2
124	10
138	140
139	999
140	1
141	50
180	10
195	90
196	11
