Mass spectrum: METHYL-4,6-DI-O-ACETYL-2,3-DIDEOXY-BETA-D-ERYTHRO-HEX-2-ENOPYRANOSID; EI-MS
Formula: C11H16O6
Exact mass: 244.09469
Instrument type: EI-MS
m/z	relative intensity
39	100
40	30
54	30
62	2
69	150
70	20
71	140
81	15
82	60
83	70
84	20
97	14
99	40
100	999
109	50
110	7
111	340
112	50
113	40
129	22
141	280
142	100
153	60
171	10
183	20
213	50
243	10
