Mass spectrum: BUTYLBENZENE; EI-MS
Formula: C10H14
Exact mass: 134.10955
Instrument type: EI-MS
m/z	relative intensity
27	58
28	10
29	20
39	76
41	44
43	24
50	21
51	63
52	17
53	11
63	32
65	120
77	64
78	68
79	34
89	20
90	13
91	999
92	580
93	47
103	27
104	18
105	97
106	13
115	15
119	12
134	283
135	32
