Mass spectrum: ACETAL; EI-MS
Formula: C6H14O2
Exact mass: 118.09938
Instrument type: EI-MS
m/z	relative intensity
27	13
29	71
31	23
43	5
44	28
45	999
46	28
47	20
61	36
72	16
73	811
74	4
75	84
89	10
103	262
104	2
118	7
