Mass spectrum: GAMMA-PICOLINE; EI-MS
Name: 4-METHYLPYRIDINE
Formula: C6H7N
Exact mass: 93.05785
Instrument type: EI-MS
m/z	relative intensity
26	32
27	37
28	40
37	31
38	64
39	230
40	104
41	36
49	12
50	53
51	86
52	42
53	56
54	76
61	17
62	27
63	58
64	31
65	189
66	362
67	84
78	42
91	14
92	218
93	999
94	77
