Mass spectrum: 9-FLUORENECARBOXYLIC ACID TRIMETHYLSILYL ESTER; EI-MS
Name: TRIMETHYLSILYL 9-FLUORENECARBOXYLATE
Formula: C17H18O2Si
Exact mass: 282.10761
Instrument type: EI-MS
m/z	relative intensity
43	20
44	104
45	126
49	5
61	27
63	40
70	27
73	999
74	89
75	182
77	174
79	3
82	32
91	25
92	25
93	4
95	29
104	28
115	26
117	3
152	29
163	65
164	87
165	22
166	99
167	30
180	34
192	3
238	52
239	26
267	27
282	24
