Mass spectrum: 9(10H)-ACRIDONE; EI-MS
Formula: C13H9NO
Exact mass: 195.06841
Instrument type: EI-MS
m/z	relative intensity
18	18
27	12
28	36
38	20
39	40
50	62
51	36
52	21
62	28
63	72
64	39
65	18
69	20
70	12
71	23
74	40
75	44
76	52
77	36
83	16
84	79
86	12
87	23
88	18
89	25
90	18
91	11
92	23
97	22
101	11
102	15
113	39
114	24
115	29
137	11
138	20
139	148
140	126
141	20
164	32
165	22
166	191
167	408
168	56
194	33
195	999
196	150
197	11
