Mass spectrum: BROMOTRICHLOROMETHANE; EI-MS
Formula: CBrCl3
Exact mass: 195.8249
Instrument type: EI-MS
m/z	relative intensity
11	23
35	308
36	19
37	71
47	429
49	128
79	128
80	11
81	288
82	364
84	227
86	32
91	56
93	53
114	10
116	14
117	990
118	13
119	999
120	11
121	313
123	35
126	33
128	47
130	11
161	247
163	394
165	175
167	25
