Mass spectrum: 2-OCTENE; EI-MS
Formula: C8H16
Exact mass: 112.1252
Instrument type: EI-MS
m/z	relative intensity
15	15
26	24
27	377
28	84
29	529
38	17
39	388
40	61
41	903
42	420
43	146
50	15
51	30
52	16
53	128
54	111
55	999
56	628
57	226
65	14
67	67
68	56
69	327
70	534
71	50
82	18
83	207
84	96
97	18
112	330
113	23
