Mass spectrum: N-PROPYL BUTYRATE; EI-MS
Formula: C7H14O2
Exact mass: 130.09938
Instrument type: EI-MS
m/z	relative intensity
15	28
26	19
27	272
28	37
29	55
31	64
39	103
40	19
41	279
42	185
43	885
44	30
45	15
55	22
57	15
59	63
60	146
61	102
71	999
72	49
73	92
87	12
88	49
89	658
90	31
100	12
101	60
102	50
130	3
