Mass spectrum: TRIMETHYLOCTADECYLAMMONIUM CHLORIDE; EI-MS
Formula: C21H46ClN
Exact mass: 347.33188
Instrument type: EI-MS
m/z	relative intensity
15	7
18	17
29	17
35	3
36	3
43	38
50	76
59	999
69	13
71	31
84	24
91	10
97	12
100	9
114	12
128	7
142	4
156	3
170	3
184	3
198	3
212	3
226	3
240	3
254	2
268	3
282	5
297	112
312	0
