Mass spectrum: 1,2-DICHLOROETHANE; EI-MS
Formula: C2H4Cl2
Exact mass: 97.96901
Instrument type: EI-MS
m/z	relative intensity
25	30
26	131
27	398
28	3
35	42
36	26
47	21
48	2
49	249
51	78
60	32
61	9
62	999
63	125
64	311
65	3
98	73
100	45
