Mass spectrum: 6-METHYL-3-HEPTANONE; EI-MS
Formula: C8H16O
Exact mass: 128.12012
Instrument type: EI-MS
m/z	relative intensity
15	24
26	28
27	390
28	32
29	713
30	13
39	161
41	298
42	50
43	852
44	24
51	11
53	29
54	11
55	100
56	46
57	999
58	22
71	200
72	524
73	59
81	283
82	15
85	31
99	162
100	11
128	76
