Mass spectrum: 1.5-CYCLOOCTADIENE; EI-MS
Formula: C8H12
Exact mass: 108.0939
Instrument type: EI-MS
m/z	relative intensity
26	22
27	210
28	75
29	30
38	29
39	472
40	44
41	231
42	15
50	46
51	98
52	55
53	138
54	999
55	59
62	11
63	26
65	84
66	197
67	826
68	51
77	127
78	54
79	359
80	428
81	35
91	81
92	10
93	135
94	11
107	16
108	114
109	11
