Mass spectrum: 2,2,5,7,8-PENTAMETHYLCHROMAN-6-OL; EI-MS
Name: 2,4-DIHYDRO-2,2,5,7,8-PENTAMETHYL-6-HYDROXY-2H-1-BENZOPYRANE
Formula: C14H20O2
Exact mass: 220.14633
Instrument type: EI-MS
m/z	relative intensity
27	53
28	373
29	33
32	103
39	67
40	16
41	76
43	72
44	13
51	30
53	84
55	48
57	28
65	40
67	52
69	38
77	70
79	67
81	30
83	30
91	85
93	33
105	41
107	47
115	30
119	34
121	106
133	28
135	63
136	120
137	62
147	43
149	36
161	42
162	18
163	49
164	980
165	999
166	178
175	103
176	73
177	57
188	27
189	40
191	16
203	69
204	36
205	65
218	83
219	60
220	800
