Mass spectrum: PENTYL BENZOATE; EI-MS
Formula: C12H16O2
Exact mass: 192.11503
Instrument type: EI-MS
m/z	relative intensity
41	11
42	107
43	24
55	86
69	25
70	316
71	19
77	87
78	11
79	43
105	622
106	56
122	183
123	999
124	76
135	14
192	61
193	10
