Mass spectrum: N-ACETYL-ALANYL-LEUCYL-ALANINE METHYLESTER; EI-MS
Formula: C15H27N3O5
Exact mass: 329.19507
Instrument type: EI-MS
m/z	relative intensity
15	22
27	16
28	22
29	1
30	76
41	29
42	32
43	8
44	480
45	16
55	35
56	1
57	10
59	13
69	15
70	4
72	25
84	13
86	999
87	12
98	16
99	11
102	13
104	2
126	11
141	16
158	35
183	3
199	45
200	22
201	16
227	3
243	22
273	10
329	5
