Mass spectrum: PHENYLETHYL ACETATE; EI-MS
Formula: C10H12O2
Exact mass: 164.08373
Instrument type: EI-MS
m/z	relative intensity
15	42
27	20
39	65
41	13
42	12
43	816
44	15
50	20
51	65
52	15
63	34
65	96
77	68
78	64
79	26
89	18
91	202
92	38
103	64
104	999
105	118
