Mass spectrum: 2-METHYL-8-NITROPYRROLO(3,2-F)QUINOLINE; EI-MS
Formula: C12H9N3O2
Exact mass: 227.06948
Instrument type: EI-MS
m/z	relative intensity
41	474
43	895
44	474
55	58
57	685
67	158
69	368
71	26
81	132
83	184
84	132
85	11
90	105
95	79
97	105
98	8
127	237
153	132
154	840
169	13
181	685
197	52
227	999
228	105
