Mass spectrum: ISOPROPYL BENZOATE; EI-MS
Formula: C10H12O2
Exact mass: 164.08373
Instrument type: EI-MS
m/z	relative intensity
27	11
41	26
42	21
43	129
45	13
59	358
60	13
77	155
78	32
79	32
105	999
106	129
107	13
119	11
122	290
123	461
124	40
146	18
149	34
164	263
165	34
