Mass spectrum: PARA NITROTOLUENE; EI-MS
Formula: C7H7NO2
Exact mass: 137.04768
Instrument type: EI-MS
m/z	relative intensity
27	35
28	28
30	47
37	12
38	34
39	261
40	18
41	69
50	74
51	106
52	28
53	21
61	17
62	50
63	153
64	37
65	796
66	42
77	123
78	23
79	119
89	104
90	32
91	999
92	76
107	183
108	13
121	16
137	665
138	54
