Mass spectrum: 1,2-DIPROPYLHYDRAZINE; EI-MS
Formula: C6H16N2
Exact mass: 116.13135
Instrument type: EI-MS
m/z	relative intensity
26	11
27	127
28	144
29	8
30	34
31	136
32	125
39	4
41	182
42	35
43	281
44	4
45	397
46	7
54	14
56	7
57	52
58	107
59	19
73	12
74	7
85	14
87	999
88	6
116	463
117	58
