Mass spectrum: ISOVALERALDEHYDE BENZYL 3-METHYLBUTYL ACETAL; EI-MS
Name: ISOPENTANAL ISOAMYL BENZYL ACETAL
Formula: C17H28O2
Exact mass: 264.20893
Instrument type: EI-MS
m/z	relative intensity
27	21
29	41
39	22
41	7
42	11
43	134
55	17
57	1
65	48
69	14
71	119
77	1
79	11
90	13
91	999
92	10
133	10
176	10
177	13
207	44
