Mass spectrum: 2-ACETYLFURAN; EI-MS
Name: 1-(2-FURANYL)ETHANONE
Formula: C6H6O2
Exact mass: 110.03678
Instrument type: EI-MS
m/z	relative intensity
27	32
39	590
40	170
42	62
43	510
44	17
51	63
52	10
53	63
67	341
68	223
82	32
95	999
96	262
97	20
110	761
111	202
112	11
