Mass spectrum: PARA-BROMOTOLUENE; EI-MS
Name: 4-BROMOTOLUENE
Formula: C7H7Br
Exact mass: 169.97311
Instrument type: EI-MS
m/z	relative intensity
44	19
45	53
50	50
51	43
61	18
62	42
63	100
64	27
65	175
66	11
74	14
75	18
76	10
85	33
86	34
87	11
89	117
90	105
91	999
92	83
169	133
170	863
171	199
172	849
173	69
