Mass spectrum: ISOPENTYL ACETATE; EI-MS
Formula: C7H14O2
Exact mass: 130.09938
Instrument type: EI-MS
m/z	relative intensity
17	80
18	20
27	999
29	18
39	20
40	25
41	100
43	57
44	35
45	20
55	305
56	2
57	25
61	100
66	40
67	65
68	35
69	20
70	110
71	3
86	20
88	90
90	20
98	2
102	20
114	25
127	20
