Mass spectrum: ISOPENTYL ACETATE; EI-MS
Formula: C7H14O2
Exact mass: 130.09938
Instrument type: EI-MS
m/z	relative intensity
15	64
27	82
28	22
29	78
31	14
39	63
40	10
41	141
42	137
43	999
44	29
45	22
53	13
55	386
56	32
57	38
58	18
61	109
69	56
70	619
71	47
72	20
73	107
85	12
87	80
88	14
130	7
