Mass spectrum: N-(PARA-PHENOXYPHENYL)-2-PYRROLIDONE; EI-MS
Formula: C16H15NO2
Exact mass: 253.11028
Instrument type: EI-MS
m/z	relative intensity
25	2
26	6
27	25
28	6
29	18
30	5
31	6
32	1
36	5
37	1
38	10
39	5
40	6
41	72
42	11
43	2
44	4
45	3
50	15
51	7
52	19
53	10
54	2
55	3
56	13
57	20
58	2
61	0
62	4
63	26
64	20
65	5
66	8
67	9
68	3
69	3
70	9
71	9
73	3
74	1
75	8
76	20
77	110
78	3
79	8
80	8
81	2
82	0
83	9
84	5
85	5
86	0
87	2
88	4
89	6
90	1
91	20
92	19
93	17
94	1
95	5
96	4
97	8
98	1
99	10
100	1
101	2
102	1
103	11
104	24
105	60
106	1
107	5
108	6
109	3
112	1
113	4
114	4
115	40
116	1
117	11
118	5
119	4
120	5
121	13
122	4
125	4
126	0
127	7
128	14
129	5
130	2
131	9
132	10
133	3
134	0
135	6
136	2
137	2
138	0
139	13
140	7
150	5
151	0
152	5
153	13
154	9
155	3
156	10
157	5
158	3
159	1
160	7
165	5
166	7
167	1
168	15
169	19
170	26
171	0
175	2
176	11
177	3
178	0
179	2
180	4
181	4
182	1
183	8
184	7
185	12
186	1
194	2
195	4
196	20
197	3
198	999
199	164
200	15
204	0
205	5
206	2
210	3
211	1
212	3
213	3
219	4
223	1
224	7
225	10
226	3
250	0
251	1
252	19
253	880
254	17
255	20
256	2
