Mass spectrum: DIMETHYL SUCCINATE; EI-MS
Formula: C6H10O4
Exact mass: 146.05791
Instrument type: EI-MS
m/z	relative intensity
41	10
43	11
45	25
55	287
56	26
57	39
59	209
85	10
86	12
87	134
88	10
101	10
114	286
115	999
116	57
146	1
