Mass spectrum: 2,2-DIMETHYLPROPYL ACETATE; EI-MS
Formula: C7H14O2
Exact mass: 130.09938
Instrument type: EI-MS
m/z	relative intensity
14	15
15	35
18	30
25	6
26	999
27	135
29	200
38	6
40	265
42	30
43	975
44	3
54	115
55	165
57	715
58	3
66	40
68	35
71	50
72	3
73	280
98	15
115	35
129	10
