Mass spectrum: TRANS-2-NONENAL; EI-MS
Formula: C9H16O
Exact mass: 140.12012
Instrument type: EI-MS
m/z	relative intensity
15	24
26	37
27	563
28	64
29	564
30	12
38	25
39	572
40	72
41	999
42	303
43	882
44	29
50	18
51	43
52	23
53	152
54	158
55	711
56	272
57	436
58	60
65	26
66	27
67	171
68	111
69	352
70	652
71	76
72	81
77	24
79	57
80	29
81	160
82	47
83	439
84	227
85	27
93	77
94	42
95	21
96	184
97	117
98	104
99	11
107	27
109	22
111	46
112	18
122	30
