Mass spectrum: METHYL N-PHENYLDITHIOCARBAMATE; EI-MS
Formula: C8H9NS2
Exact mass: 183.01764
Instrument type: EI-MS
m/z	relative intensity
15	31
37	41
38	66
39	136
45	190
46	54
47	297
48	242
49	27
50	241
51	537
52	46
59	20
61	10
62	19
63	66
64	62
65	79
68	37
70	15
74	64
75	50
76	68
77	999
78	84
90	8
91	232
92	20
93	15
103	12
108	37
109	149
110	38
135	996
136	482
137	81
138	15
150	27
182	9
183	254
184	37
185	24
