Mass spectrum: 1,6-DIMETHYL-3,4-BENZO-2-OXABICYCLO(4.1.0)HEPT-3-EN-5-ONE; EI-MS
Formula: C12H12O2
Exact mass: 188.08373
Instrument type: EI-MS
m/z	relative intensity
50	140
51	161
52	45
53	135
54	19
55	25
62	35
63	17
64	13
65	311
66	65
67	205
68	15
69	125
73	74
75	40
76	280
77	140
78	30
79	15
80	10
85	15
89	30
90	10
91	170
92	130
93	80
94	44
95	50
102	30
103	40
104	201
105	50
106	10
107	40
114	10
115	125
116	40
117	110
118	50
119	20
120	39
121	465
122	65
127	10
128	15
129	15
130	10
131	120
132	30
133	10
141	10
142	15
143	25
144	30
145	490
146	160
147	65
148	225
149	15
158	20
159	190
160	60
161	20
171	70
172	30
173	270
174	50
175	10
187	100
188	999
189	445
190	70
