Mass spectrum: ACETALDEHYDE ISOPENTYL PROPYL ACETAL; EI-MS
Name: ACETALDEHYDE ISOAMYL PROPYL ACETAL
Formula: C10H22O2
Exact mass: 174.16198
Instrument type: EI-MS
m/z	relative intensity
15	25
26	19
27	241
29	14
30	10
31	173
39	125
41	35
42	134
43	999
44	113
45	73
46	18
53	16
55	189
56	2
57	29
58	16
59	18
61	2
69	22
70	95
71	731
72	5
86	17
87	671
88	40
89	3
99	14
115	225
116	17
159	14
160	13
