Mass spectrum: HEXADECANE; EI-MS
Formula: C16H34
Exact mass: 226.26605
Instrument type: EI-MS
m/z	relative intensity
40	23
41	450
42	117
43	97
44	39
53	15
54	17
55	18
56	137
57	999
58	45
67	1
68	12
69	69
70	86
71	52
72	29
82	12
83	36
84	4
85	286
86	19
97	24
98	3
99	70
111	9
112	18
113	3
126	12
127	18
140	8
141	1
154	5
155	8
168	3
169	1
182	1
183	3
196	1
197	0
226	7
227	1
