Mass spectrum: 2-(4-TRIMETHYLSILYLMETHYL-3-CYCLOHEXENYL)-2-PROPANOL; EI-MS
Formula: C13H26OSi
Exact mass: 226.17529
Instrument type: EI-MS
m/z	relative intensity
42	26
43	53
45	80
59	129
69	35
71	27
73	999
74	112
75	163
77	47
79	43
91	53
92	77
93	190
94	51
121	27
134	65
135	27
149	28
193	31
208	257
209	51
211	28
226	53
