Mass spectrum: 5-METHYL-3-PROPYLPYRIDINE; EI-MS
Formula: C9H13N
Exact mass: 135.1048
Instrument type: EI-MS
m/z	relative intensity
27	15
29	13
39	37
40	11
41	70
50	41
51	120
52	20
53	90
63	60
64	16
65	70
66	16
77	220
78	44
79	180
80	21
91	40
92	19
93	40
105	38
106	999
107	150
119	26
120	80
121	20
134	39
135	360
136	49
