Mass spectrum: FLUORENE; EI-MS
Name: 2,3-BENZOINDENE
Formula: C13H10
Exact mass: 166.07825
Instrument type: EI-MS
m/z	relative intensity
51	10
62	12
63	31
69	71
70	11
74	11
75	10
76	10
81	69
82	187
83	133
86	11
87	16
89	15
113	11
115	30
139	52
162	16
163	129
164	103
165	833
166	999
167	139
168	11
