Mass spectrum: BUTYL BUTYRATE; EI-MS
Formula: C8H16O2
Exact mass: 144.11503
Instrument type: EI-MS
m/z	relative intensity
27	11
28	14
29	65
41	129
42	14
43	310
44	11
55	55
56	690
57	183
60	108
61	23
70	11
71	999
72	49
73	72
88	78
89	663
90	32
101	80
115	11
117	30
