Mass spectrum: TRIETHYL PHOSPHITE; EI-MS
Formula: C6H15O3P
Exact mass: 166.07588
Instrument type: EI-MS
m/z	relative intensity
15	34
19	38
26	27
27	269
28	38
29	604
31	77
43	103
45	135
47	147
48	43
65	964
66	55
76	42
81	457
82	999
83	655
91	156
92	48
93	443
94	89
106	18
109	207
110	131
111	682
112	17
121	420
122	188
138	62
139	626
140	29
166	514
167	40
