Mass spectrum: N-OCTYLBIS(TRIMETHYLSILYL)AMINE; EI-MS
Formula: C14H35NSi2
Exact mass: 273.2308
Instrument type: EI-MS
m/z	relative intensity
41	11
45	13
59	53
73	157
74	15
86	54
100	28
130	18
131	13
172	12
174	999
175	196
176	85
184	57
258	183
259	49
260	18
273	51
274	15
