Mass spectrum: DIMETHYL OXALATE; EI-MS
Formula: C4H6O4
Exact mass: 118.02661
Instrument type: EI-MS
m/z	relative intensity
14	12
15	991
28	51
29	142
30	25
31	55
33	10
43	37
44	30
45	347
59	999
60	31
118	18
