Mass spectrum: TRIPHENYLPHOSPHINE; EI-MS
Formula: C18H15P
Exact mass: 262.09114
Instrument type: EI-MS
m/z	relative intensity
51	50
57	21
63	21
65	2
77	32
78	13
91	24
107	12
108	320
109	29
115	27
131	2
133	25
152	71
153	19
154	2
157	33
170	25
181	15
182	0
183	610
184	130
185	100
186	1
260	15
261	122
262	999
263	2
264	20
