Mass spectrum: DIISOPROPYLHYDRAZONE ACETALDEHYDE; EI-MS
Name: ACETALDEHYDE DIISOPROPYLHYDRAZONE
Formula: C8H18N2
Exact mass: 142.147
Instrument type: EI-MS
m/z	relative intensity
26	19
27	197
28	46
29	16
30	35
39	64
40	18
41	22
42	205
43	278
44	333
45	1
54	8
55	12
56	58
57	12
58	40
68	13
69	12
70	3
83	8
84	12
85	999
86	6
100	24
127	416
128	37
142	16
143	19
