Mass spectrum: TRIMETHYLAMINE; EI-MS
Formula: C3H9N
Exact mass: 59.0735
Instrument type: EI-MS
m/z	relative intensity
15	81
17	13
18	16
26	17
27	36
28	48
29	59
30	155
32	11
38	17
39	24
40	47
41	52
42	365
43	87
44	38
45	12
54	15
56	28
57	58
58	999
59	436
60	18
