Mass spectrum: 2-(1-METHOXYPENTYL)CYCLOHEXANONE; EI-MS
Formula: C12H22O2
Exact mass: 198.16198
Instrument type: EI-MS
m/z	relative intensity
41	984
42	92
43	223
45	788
51	52
53	185
54	139
55	403
56	46
57	92
59	65
65	71
66	51
67	530
68	124
69	999
70	96
71	240
77	101
79	233
80	78
81	766
82	146
83	84
85	102
91	96
93	86
94	38
95	233
96	60
97	152
98	357
99	38
100	94
101	638
102	47
109	251
111	114
119	52
123	66
131	137
135	148
137	367
138	50
141	289
166	289
167	44
169	75
198	38
