Mass spectrum: 3,4-EPOXY MENTHANE; EI-MS
Formula: C10H18O
Exact mass: 154.13577
Instrument type: EI-MS
m/z	relative intensity
15	5
17	7
18	50
26	1
27	80
28	190
39	250
40	5
41	730
42	120
43	999
44	5
45	20
51	25
52	10
53	15
54	45
55	880
56	650
57	15
58	15
59	20
65	30
66	2
67	217
68	220
69	820
70	25
71	730
72	45
73	10
77	5
78	5
79	80
80	15
81	27
82	60
83	320
84	110
85	5
86	130
87	20
91	30
92	0
93	80
94	20
95	235
96	3
97	140
98	70
99	425
100	4
107	10
108	5
109	60
110	5
111	750
112	120
113	50
114	1
115	20
119	30
121	40
123	1
124	5
125	325
126	50
127	3
128	130
129	8
134	5
135	1
136	5
137	5
138	5
139	70
140	70
141	5
142	5
153	1
154	450
155	60
