Mass spectrum: PHENYLETHYL ISOVALERATE; EI-MS
Formula: C13H18O2
Exact mass: 206.13068
Instrument type: EI-MS
m/z	relative intensity
27	53
29	57
39	64
41	121
42	27
43	55
51	31
55	12
57	261
63	12
65	37
77	69
78	31
79	32
85	127
91	86
92	11
103	34
104	999
105	237
106	13
