Mass spectrum: LIMONENE; EI-MS
Name: (R)-1-METHYL-4-(1-METHYLETHENYL)CYCLOHEXENE
Formula: C10H16
Exact mass: 136.1252
Instrument type: EI-MS
m/z	relative intensity
28	333
41	29
53	63
67	320
68	999
79	149
80	102
93	531
94	243
107	154
108	52
121	192
136	144
137	15
