Mass spectrum: DIHYDRODIPHENYLSILANE; EI-MS
Formula: C12H12Si
Exact mass: 184.07083
Instrument type: EI-MS
m/z	relative intensity
41	57
42	22
43	136
44	31
45	133
50	13
51	28
53	133
54	27
55	31
56	46
57	39
58	34
59	183
66	11
67	11
73	11
74	146
77	28
78	32
79	81
80	22
81	25
86	10
91	45
92	11
103	31
104	12
105	487
106	999
107	154
108	43
129	16
154	12
155	27
180	30
181	98
182	41
183	174
184	546
185	104
186	27
