Mass spectrum: 1-HYDROXYMETHYL-TRANS-4-METHYLCYCLOHEXANE; EI-MS
Formula: C8H16O
Exact mass: 128.12012
Instrument type: EI-MS
m/z	relative intensity
15	22
26	20
27	130
29	15
31	90
39	107
40	30
41	12
42	40
43	100
51	20
53	3
54	80
55	999
56	80
57	5
67	80
68	120
69	89
79	3
81	177
82	122
83	30
86	5
95	156
97	305
98	40
110	40
