Mass spectrum: ETHANE; EI-MS
Formula: C2H6
Exact mass: 30.04695
Instrument type: EI-MS
m/z	relative intensity
13	12
14	34
15	46
25	42
26	230
27	333
28	999
29	217
30	262
31	6
