Mass spectrum: DIETHYL OXALATE; EI-MS
Formula: C6H10O4
Exact mass: 146.05791
Instrument type: EI-MS
m/z	relative intensity
15	28
26	19
27	157
28	93
29	999
30	32
31	142
43	23
45	114
56	11
57	17
59	15
73	23
74	89
75	21
146	4
