Mass spectrum: CITRONELLOL; EI-MS
Name: 3,7-DIMETHYL-6-OCTEN-1-OL
Formula: C10H20O
Exact mass: 156.15142
Instrument type: EI-MS
m/z	relative intensity
55	504
56	372
67	390
69	999
81	489
82	540
95	359
96	100
109	142
110	64
123	214
124	26
138	105
156	45
