Mass spectrum: METHYL 5-CHLORO-2-PYRAZINECARBOXYLATE; EI-MS
Formula: C6H5ClN2O2
Exact mass: 172.00396
Instrument type: EI-MS
m/z	relative intensity
15	130
25	18
28	98
29	20
39	25
42	23
50	18
51	20
52	93
53	96
59	160
60	7
62	31
66	36
74	20
77	3
78	37
79	26
86	286
87	3
88	93
113	441
114	999
115	18
116	312
117	19
140	20
141	21
142	534
143	100
144	172
172	12
173	19
174	41
