Mass spectrum: FURFURYL ACETATE; EI-MS
Name: 2-FURYLMETHYL ACETATE
Formula: C7H8O3
Exact mass: 140.04734
Instrument type: EI-MS
m/z	relative intensity
14	28
15	121
26	37
27	222
28	41
29	81
37	23
38	56
39	176
40	15
41	98
42	63
43	668
44	20
50	56
51	106
52	475
53	388
54	18
55	18
61	20
68	10
69	53
70	37
79	14
80	196
81	999
82	60
95	40
97	131
98	694
99	40
140	390
141	32
