Mass spectrum: 2-BUTOXYQUINOLINE; EI-MS
Formula: C13H15NO
Exact mass: 201.11536
Instrument type: EI-MS
m/z	relative intensity
57	7
77	2
86	1
89	11
90	46
91	3
95	4
101	5
102	8
103	4
116	17
117	213
118	21
128	126
129	155
130	32
131	3
143	21
144	10
145	999
146	208
147	16
156	23
157	10
158	140
159	32
160	3
170	9
171	179
172	110
173	14
186	2
200	16
201	92
202	21
203	1
