Mass spectrum: GLYCERYL TRIACETATE; EI-MS
Formula: C9H14O6
Exact mass: 218.07904
Instrument type: EI-MS
m/z	relative intensity
41	411
45	54
54	45
55	72
56	171
60	126
73	185
74	16
75	31
86	199
98	45
99	6
103	999
104	54
115	316
116	44
117	85
145	891
146	58
158	4
159	746
160	58
