Mass spectrum: DL-2-HYDROXYBUTANOIC ACID; EI-MS
Name: DL-2-HYDROXYBUTYRIC ACID
Formula: C4H8O3
Exact mass: 104.04734
Instrument type: EI-MS
m/z	relative intensity
15	16
19	32
26	17
27	84
28	72
29	116
30	18
31	288
39	65
40	13
41	319
42	62
43	56
44	65
45	54
55	153
56	13
57	96
58	78
59	999
60	45
70	84
76	16
92	14
105	10
