Mass spectrum: CHOLESTEROL; EI-MS
Formula: C27H46O
Exact mass: 386.35487
Instrument type: EI-MS
m/z	relative intensity
43	374
44	472
55	377
57	284
67	228
69	237
71	131
79	22
81	330
83	142
91	198
93	24
95	312
97	100
105	220
107	28
108	142
109	180
119	162
120	11
121	169
131	104
133	145
135	14
145	180
147	151
149	153
159	13
161	153
163	114
213	133
215	15
231	111
233	175
234	136
255	13
273	131
275	246
301	250
353	16
368	281
371	198
373	109
386	999
387	297
388	377
389	105
