Mass spectrum: (2-METHYL-2-PROPENYL)TRIMETHYLSILANE; EI-MS
Name: 2,4,4-TRIMETHYL-4-SILA-1-PENTENE
Formula: C7H16Si
Exact mass: 128.10213
Instrument type: EI-MS
m/z	relative intensity
45	53
59	97
73	999
74	71
75	34
85	62
113	115
114	14
128	108
129	14
