Mass spectrum: 2-NAPHTHYL METHYL ETHER; EI-MS
Name: 2-METHOXYNAPHTHALENE
Formula: C11H10O
Exact mass: 158.07316
Instrument type: EI-MS
m/z	relative intensity
15	25
39	38
50	20
51	28
62	36
63	95
64	12
65	36
74	29
75	35
76	13
77	19
79	19
86	11
87	19
88	22
89	81
101	14
113	35
114	52
115	928
116	96
126	32
127	59
128	127
129	39
143	86
158	999
159	123
