Mass spectrum: 2-(2-(4-AMINOPHENYL)-TRANS-VINYL)PYRIDINE; EI-MS
Formula: C13H12N2
Exact mass: 196.10005
Instrument type: EI-MS
m/z	relative intensity
77	100
78	91
79	100
82	7
91	73
93	100
96	50
97	10
98	95
105	58
106	125
149	8
151	36
152	58
167	91
168	6
178	141
179	59
180	314
181	8
194	73
195	999
196	500
197	87
