Mass spectrum: CHLORO(TRIMETHYLSILYL)METHYL PHENYL SULFIDE; EI-MS
Formula: C10H15ClSSi
Exact mass: 230.03523
Instrument type: EI-MS
m/z	relative intensity
43	146
44	99
45	163
50	30
51	107
55	51
57	40
58	36
59	107
63	39
65	80
66	47
69	39
71	239
72	26
73	872
74	83
75	113
77	157
78	239
79	44
85	42
91	76
93	166
95	66
99	34
103	27
105	72
109	110
110	112
113	47
121	999
122	857
123	173
124	49
135	91
136	34
137	65
151	206
152	30
153	36
165	31
167	155
179	34
187	60
195	82
196	26
230	105
232	43
