Mass spectrum: NORCAMPHOR; EI-MS
Name: BICYCLO(2.2.1)HEPTAN-2-ONE
Formula: C7H10O
Exact mass: 110.07316
Instrument type: EI-MS
m/z	relative intensity
41	35
43	16
53	10
54	168
55	22
56	11
66	999
67	545
68	160
69	19
79	22
80	11
81	93
82	40
84	14
91	11
92	52
93	13
94	52
109	41
110	742
111	57
