Mass spectrum: 2-(2-METHOXYETHOXY)ETHANOL; EI-MS
Name: METHYL CARBITOL
Formula: C5H12O3
Exact mass: 120.07864
Instrument type: EI-MS
m/z	relative intensity
15	113
27	73
28	64
29	125
31	202
33	19
42	13
43	104
44	40
45	999
46	24
58	294
59	448
60	53
75	99
87	23
89	109
90	158
