Mass spectrum: BUTYL PROPIONATE; EI-MS
Formula: C7H14O2
Exact mass: 130.09938
Instrument type: EI-MS
m/z	relative intensity
28	14
29	199
31	13
41	119
43	21
55	72
56	653
57	999
58	35
71	43
73	26
74	51
75	519
76	21
87	124
100	11
101	18
