Mass spectrum: CAPTODIAMINE; EI-MS
Formula: C21H29NS2
Exact mass: 359.17414
Instrument type: EI-MS
m/z	relative intensity
41	19
42	34
43	9
44	3
45	39
56	19
57	19
58	999
59	39
71	19
72	19
73	7
74	9
104	9
152	14
153	1
163	4
164	9
165	114
166	8
167	34
168	9
197	19
198	1
199	44
200	9
255	99
256	3
257	9
286	14
287	9
359	9
360	34
361	14
