Mass spectrum: TERT-BUTYL PHENYL ETHER; EI-MS
Formula: C10H14O
Exact mass: 150.10447
Instrument type: EI-MS
m/z	relative intensity
38	17
39	100
40	20
41	11
43	10
50	10
51	40
55	2
56	11
57	100
65	41
66	3
67	39
68	15
94	999
135	30
