Mass spectrum: FLUORENE; EI-MS
Formula: C13H10
Exact mass: 166.07825
Instrument type: EI-MS
m/z	relative intensity
43	13
44	11
50	50
51	71
52	14
55	24
56	17
57	11
61	16
62	63
63	145
64	20
65	24
68	16
69	107
70	115
74	48
75	40
76	27
77	14
81	152
82	607
83	356
86	31
87	43
88	19
89	43
98	13
113	20
115	57
137	13
138	11
139	67
162	26
163	151
164	152
165	886
166	999
167	151
168	26
