Mass spectrum: BUTYROPHENONE; EI-MS
Name: PHENYL N-PROPYL KETONE
Formula: C10H12O
Exact mass: 148.08882
Instrument type: EI-MS
m/z	relative intensity
28	187
29	138
30	6
32	17
38	48
39	274
40	63
41	275
42	169
44	8
45	8
50	196
51	450
52	48
53	17
55	39
62	20
64	41
66	6
69	13
71	13
74	87
75	62
76	75
77	999
78	130
79	16
89	21
91	82
92	7
102	8
103	6
104	7
105	791
106	71
115	9
120	37
148	28
