Mass spectrum: (2S,3S)-1,4-BIS(BENZYLOXY)-2,3-BUTANEDIOL; EI-MS
Formula: C18H22O4
Exact mass: 302.15181
Instrument type: EI-MS
m/z	relative intensity
58	14
71	42
76	34
79	1
82	57
85	34
87	14
88	2
91	732
97	48
103	14
104	51
105	25
107	999
108	99
110	3
111	34
121	23
124	34
125	3
135	11
136	11
139	31
147	2
151	40
155	25
163	99
167	3
175	11
181	14
182	28
192	2
193	48
197	20
206	14
207	2
211	887
212	40
219	17
