Mass spectrum: 4-(ALPHA,BETA-DIBROMOPHENETHYL)-2-METHOXY-5,6-DIPHENYLPYRIMIDINE; EI-MS
Formula: C25H20Br2N2O
Exact mass: 521.99424
Instrument type: EI-MS
m/z	relative intensity
32	31
36	23
51	15
76	1
77	60
79	13
80	44
81	2
82	45
89	18
91	34
101	2
102	12
103	10
104	15
115	1
118	87
126	12
127	11
128	3
129	11
135	13
138	13
139	1
140	12
143	17
145	22
146	1
151	24
152	58
152.5	50
153	3
153.5	13
158	10
159	13
160	1
160.5	15
164	10
165	24
166	1
166.5	13
167	45
167.5	13
175	2
176	16
177	11
178	16
181	2
181.5	44
182	74
182.5	19
189	1
190	13
201	12
202	42
203	3
204	12
216	15
217	15
227	1
228	24
229	10
230	28
242	1
245	49
246	15
253	12
255	1
260	31
272	11
285	26
286	1
287	468
289	17
291	11
304	3
305	13
306	68
307	23
329	1
331	16
333	11
347	50
348	2
349	23
361	19
362	10
363	999
364	471
365	86
443	506
444	14
445	517
448	18
524	12
