Mass spectrum: DIHYDROCARVEOL(TRANS-EQUATORIAL); EI-MS
Name: 2-METHYL-5-ISOPROPENYLCYCLOHEXANOL(TRANS-EQUATORIAL)
Formula: C10H18O
Exact mass: 154.13577
Instrument type: EI-MS
m/z	relative intensity
53	11
55	105
56	33
57	31
58	37
67	100
68	167
69	123
70	35
71	51
72	64
77	11
79	375
80	66
81	172
82	156
83	83
84	48
85	14
91	34
92	60
93	542
94	267
95	95
96	72
97	83
98	13
105	24
106	12
107	900
108	289
109	27
111	35
121	743
122	75
135	12
136	999
137	114
154	22
