Mass spectrum: 4-METHYL-2-PENTANONE; EI-MS
Name: METHYL ISOBUTYL KETONE
Formula: C6H12O
Exact mass: 100.08882
Instrument type: EI-MS
m/z	relative intensity
15	79
26	11
27	103
28	1
29	139
38	13
39	117
40	2
41	247
42	35
43	999
44	2
55	13
56	13
57	249
58	40
59	25
67	17
85	146
100	15
101	14
