Mass spectrum: 2-HEXANONE; EI-MS
Formula: C6H12O
Exact mass: 100.08882
Instrument type: EI-MS
m/z	relative intensity
29	91
41	108
42	12
43	999
44	23
57	240
58	836
59	5
71	87
72	16
85	116
100	24
101	21
