Mass spectrum: BENZOIC ACID ETHYL ESTER; EI-MS
Name: ETHYL BENZOATE
Formula: C9H10O2
Exact mass: 150.06808
Instrument type: EI-MS
m/z	relative intensity
29	23
45	16
51	24
77	267
78	29
91	11
105	999
106	96
122	352
123	29
135	13
149	22
150	242
151	25
