Mass spectrum: 6-PHENYL-4-METHYLTHIO-1-HEXENE; EI-MS
Formula: C13H18S
Exact mass: 206.11292
Instrument type: EI-MS
m/z	relative intensity
61	24
91	124
92	11
102	99
104	37
117	999
118	107
129	12
158	41
165	181
166	21
206	393
207	61
208	23
