Mass spectrum: (S)-2,3,7,7A-TETRAHYDRO-4,7A-DIMETHYL-1H-INDENE-1,5(6H)-DIONE; EI-MS
Formula: C11H14O2
Exact mass: 178.09938
Instrument type: EI-MS
m/z	relative intensity
31	160
32	888
38	153
39	717
40	176
41	201
42	566
44	88
45	101
47	56
50	95
51	121
53	105
54	99
55	163
56	174
57	326
58	888
59	252
63	98
65	201
67	119
69	109
70	109
73	54
77	388
78	52
79	396
80	213
82	74
83	95
84	6
91	329
93	410
96	65
105	71
107	148
120	74
121	452
122	17
135	413
136	999
137	127
150	82
158	53
162	55
178	522
179	98
181	52
