Mass spectrum: HEXANOIC ACID BUTYL ESTER; EI-MS
Formula: C10H20O2
Exact mass: 172.14633
Instrument type: EI-MS
m/z	relative intensity
15	13
26	11
27	190
28	67
29	368
30	10
31	22
39	95
40	19
41	398
42	80
43	509
44	16
45	26
53	18
55	155
56	999
57	279
58	10
60	212
61	91
69	42
70	25
71	229
72	12
73	155
74	22
75	18
84	10
86	12
87	85
89	40
97	12
98	11
99	702
100	48
101	32
116	118
117	723
118	49
129	27
172	6
