Mass spectrum: PROPIONITRILE; EI-MS
Formula: C3H5N
Exact mass: 55.0422
Instrument type: EI-MS
m/z	relative intensity
15	52
26	71
27	87
28	999
29	33
40	29
51	11
52	54
53	89
54	852
55	164
56	11
