Mass spectrum: ACETOPHENONE; EI-MS
Formula: C8H8O
Exact mass: 120.05751
Instrument type: EI-MS
m/z	relative intensity
15	40
27	30
28	23
37	13
38	29
385	13
39	54
42	13
43	178
49	11
50	126
51	313
52	28
525	26
62	18
63	30
65	22
74	42
75	27
76	33
77	816
78	94
91	21
105	999
106	81
120	426
121	47
