Mass spectrum: 5-METHYL-5-PHENYL-BARBITURIC ACID; EI-MS
Formula: C11H10N2O3
Exact mass: 218.06914
Instrument type: EI-MS
m/z	relative intensity
50	130
51	660
52	530
63	10
65	50
66	90
70	50
74	0
75	30
76	60
77	310
78	3
89	40
91	30
102	60
103	3
104	999
105	100
132	260
133	1
141	40
156	60
176	30
218	6
219	90
