Mass spectrum: FURFURAL; EI-MS
Name: 2-FURALDEHYDE
Formula: C5H4O2
Exact mass: 96.02113
Instrument type: EI-MS
m/z	relative intensity
50	22
51	26
53	17
67	23
68	12
95	919
96	999
97	61
