Mass spectrum: 6,10,14-TRIMETHYL-PENTADECAN-2-ONE; EI-MS
Formula: C18H36O
Exact mass: 268.27662
Instrument type: EI-MS
m/z	relative intensity
27	33
29	78
39	26
41	24
42	52
43	966
44	26
55	31
56	147
57	441
58	999
59	46
67	48
68	72
69	281
70	16
71	605
72	48
81	152
82	12
83	195
84	67
85	345
86	3
95	259
96	116
97	121
98	3
99	55
109	278
110	203
111	11
112	34
113	112
123	141
124	19
125	102
126	88
127	36
137	8
138	71
139	21
140	59
141	2
151	22
152	21
165	86
179	6
180	22
194	29
208	17
210	7
225	24
235	16
250	193
253	2
268	17
