Mass spectrum: 2-(I-METHOXYBENZYL)CYCLOHEXANONE; EI-MS
Formula: C14H18O2
Exact mass: 218.13068
Instrument type: EI-MS
m/z	relative intensity
42	39
51	31
55	25
65	21
67	11
77	119
78	23
91	94
103	12
105	81
115	32
117	24
121	999
122	95
128	13
129	19
130	14
185	15
186	16
189	17
203	17
218	12
