Mass spectrum: N-(2-METHYL-1-PHENYLTHIOPROPYL)PYRROLIDINE; EI-MS
Formula: C14H21NS
Exact mass: 235.13947
Instrument type: EI-MS
m/z	relative intensity
18	33
43	65
66	128
72	131
84	48
96	81
110	999
125	564
126	723
