Mass spectrum: 4-BROMOBENZYL-2-TETRAHYDROPYRANYL ETHER; EI-MS
Formula: C12H15BrO2
Exact mass: 270.02554
Instrument type: EI-MS
m/z	relative intensity
39	2
41	16
42	3
43	35
44	2
54	4
55	36
56	7
57	45
58	4
59	2
67	49
68	9
69	3
71	1
73	2
77	9
78	4
79	18
80	3
83	13
84	31
85	528
86	41
87	4
89	14
90	21
91	61
92	7
93	3
99	1
101	364
102	23
103	3
104	4
105	4
106	2
107	29
108	4
114	8
115	2
116	13
117	11
118	2
129	1
130	3
131	2
143	7
144	3
145	459
146	60
147	4
149	7
150	2
156	2
157	4
158	2
169	991
170	148
171	999
172	143
173	9
182	98
183	15
184	103
185	59
186	131
187	51
188	124
189	11
191	25
192	4
195	49
196	27
197	50
198	27
199	5
209	4
210	2
211	6
212	2
213	4
214	2
222	1
223	2
224	209
225	28
226	202
227	27
228	2
269	2
270	67
271	11
272	64
273	9
