Mass spectrum: ISOBUTYLBENZENE; EI-MS
Formula: C10H14
Exact mass: 134.10955
Instrument type: EI-MS
m/z	relative intensity
27	12
41	37
43	147
45	7
55	8
56	25
78	22
91	999
92	869
93	66
105	12
117	11
118	18
134	423
135	48
