Mass spectrum: N-PIPEROYL-N-METHYLANILINE; EI-MS
Name: N-METHYL-5-(3,4-METHYLENEDIOXYPHENYL)-N-PHENYL-2,4-PENTADIENAMIDE
Formula: C19H17NO3
Exact mass: 307.12084
Instrument type: EI-MS
m/z	relative intensity
131	41
135	50
143	96
159	3
161	451
162	47
171	90
172	5
173	44
185	13
201	999
202	13
203	15
307	117
308	25
