Mass spectrum: 2-DIMETHYLAMINOPYRIMIDINE; EI-MS
Formula: C6H9N3
Exact mass: 123.07965
Instrument type: EI-MS
m/z	relative intensity
39	22
40	52
41	56
42	30
43	52
44	548
45	12
51	3
52	112
53	260
54	85
55	5
66	26
67	46
68	32
69	12
70	34
78	18
79	222
80	33
81	348
82	21
93	17
94	999
95	192
96	30
106	16
108	60
109	47
120	10
122	167
123	99
124	88
