Mass spectrum: 2,2'-TRANS-VINYLENEDIPYRIDINE; EI-MS
Formula: C12H10N2
Exact mass: 182.0844
Instrument type: EI-MS
m/z	relative intensity
50	56
51	179
52	121
62	1
63	45
64	26
65	12
75	2
76	39
77	138
78	259
79	9
80	12
90	59
91	131
101	1
102	16
103	14
104	283
105	2
126	13
127	45
128	26
129	2
130	13
152	16
153	21
154	10
155	25
179	38
180	38
181	999
182	511
183	60
