Mass spectrum: 3-ISOPROPYL-2,5-PIPERAZINEDIONE; EI-MS
Name: CYCLOGLYCYLVALINE
Formula: C7H12N2O2
Exact mass: 156.08988
Instrument type: EI-MS
m/z	relative intensity
28	26
29	13
30	304
31	1
42	24
43	32
44	50
55	3
56	41
57	156
58	20
59	1
69	27
70	105
71	18
72	4
83	11
85	146
86	65
113	11
114	999
115	52
141	12
156	7
