Mass spectrum: ETHYLHYDRAZINE; EI-MS
Formula: C2H8N2
Exact mass: 60.06875
Instrument type: EI-MS
m/z	relative intensity
26	31
27	126
28	119
29	11
30	105
31	310
32	114
39	1
40	29
41	50
42	259
43	5
44	24
45	999
46	22
57	1
58	14
59	56
60	428
61	19
