Mass spectrum: GLYCYLGLYCYLGLYCYLGLYCINE; EI-MS
Formula: C8H14N4O5
Exact mass: 246.09642
Instrument type: EI-MS
m/z	relative intensity
26	25
27	124
28	691
29	285
30	999
31	39
39	23
40	26
41	103
42	301
43	202
44	325
45	29
52	13
53	14
54	74
55	131
56	81
57	24
58	45
59	24
67	11
68	30
69	25
70	13
71	336
72	32
74	12
75	42
80	14
81	18
82	18
83	13
85	28
86	52
96	22
97	13
98	69
100	16
111	19
112	18
113	11
114	775
115	44
124	11
125	40
128	11
153	106
154	11
156	16
