Mass spectrum: 17BETA-ACETOXY-1ALPHA-HYDROXY-5ALPHA-ANDROST-2-ENE; EI-MS
Formula: C21H32O3
Exact mass: 332.23514
Instrument type: EI-MS
m/z	relative intensity
29	13
39	11
41	44
43	201
53	13
55	42
57	9
67	31
69	19
70	137
71	10
77	28
79	59
80	13
81	76
91	65
92	19
93	80
94	40
95	56
105	73
106	35
107	87
108	29
109	36
117	18
118	12
119	33
120	22
121	54
122	15
123	13
124	19
131	51
132	13
133	40
134	20
135	22
143	11
145	43
146	42
147	65
148	19
149	20
150	10
157	12
159	42
160	26
161	59
162	14
163	18
173	49
174	22
175	13
187	117
188	21
199	17
201	51
202	304
203	999
204	160
205	16
220	10
221	51
239	21
254	28
255	34
257	22
260	12
261	38
262	401
263	205
264	33
272	88
273	19
314	58
315	32
332	362
333	85
334	12
