Mass spectrum: 3-CYANOPYRIDINE; EI-MS
Name: NICOTINONITRILE
Formula: C6H4N2
Exact mass: 104.03745
Instrument type: EI-MS
m/z	relative intensity
27	65
37	10
38	11
39	14
49	37
50	265
51	143
52	44
53	24
64	11
75	88
76	147
77	433
78	18
103	22
104	999
105	65
