Mass spectrum: 5-ACETYL-1,2-DIHYDRO-4,6-DIHYDROXYPYRIMIDINE; EI-MS
Formula: C6H8N2O3
Exact mass: 156.05349
Instrument type: EI-MS
m/z	relative intensity
41	18
42	63
43	534
44	11
45	134
46	16
53	12
55	2
56	47
60	26
66	12
67	1
68	30
69	197
71	101
73	1
83	13
84	39
85	108
86	3
99	138
111	26
112	22
126	2
127	18
128	39
138	39
139	8
141	79
154	36
155	739
156	999
157	65
