Mass spectrum: (2S)-N-TERT-BUTOXYCARBONYL-2-(1,4-DIMETHANESULFONYLOXYBUTYL)PYRROLIDINE; EI-MS
Formula: C15H29NO8S2
Exact mass: 415.13346
Instrument type: EI-MS
m/z	relative intensity
55	13
56	779
57	86
59	1
69	25
70	276
71	21
96	7
97	10
114	161
115	22
122	1
123	14
124	10
137	25
140	11
141	11
167	16
168	24
169	1
170	999
171	10
184	55
219	6
220	22
236	20
263	15
264	8
265	10
316	14
336	18
342	3
360	45
415	14
