Mass spectrum: 3-METHYLPENTANOL; EI-MS
Formula: C6H14O
Exact mass: 102.10447
Instrument type: EI-MS
m/z	relative intensity
15	24
18	11
19	12
26	21
27	324
28	66
29	405
31	396
38	12
39	210
40	27
41	691
42	196
43	566
44	28
45	95
46	23
51	14
53	35
54	20
55	659
56	999
57	220
69	570
70	34
71	25
83	12
84	144
85	12
