Mass spectrum: 1-CHLORO-2-TRIMETHYLSILOXYBENZENE; EI-MS
Formula: C9H13ClOSi
Exact mass: 200.04242
Instrument type: EI-MS
m/z	relative intensity
63	58
65	62
73	98
79	46
91	133
93	606
94	51
95	220
149	554
150	85
185	999
186	151
187	374
188	51
200	381
201	48
202	138
