Mass spectrum: N-(3-(4-CHLOROPHENYL)PROPIONYL)PIPERIDIN-2-ONE; EI-MS
Formula: C14H16ClNO2
Exact mass: 265.08696
Instrument type: EI-MS
m/z	relative intensity
43	110
44	85
55	65
56	110
82	30
84	35
91	50
98	95
99	205
100	999
101	70
103	80
104	60
105	40
112	105
125	80
127	35
131	60
138	140
139	30
140	65
231	20
232	20
265	65
266	30
267	25
268	13
