Mass spectrum: CHOLESTEROL METHYL ETHER; EI-MS
Formula: C28H48O
Exact mass: 400.37052
Instrument type: EI-MS
m/z	relative intensity
39	21
41	253
42	36
43	334
44	21
45	43
53	55
54	1
55	319
56	37
57	303
58	3
59	12
65	30
66	16
67	26
68	42
69	233
70	39
71	35
72	31
73	53
77	127
78	3
79	328
80	58
81	451
82	6
83	171
84	29
85	82
86	1
91	367
92	97
93	382
94	11
95	474
96	56
97	180
98	3
99	36
103	32
104	45
105	51
106	163
107	605
108	153
109	28
110	47
111	127
112	18
113	2
114	14
115	63
116	39
117	18
118	102
119	430
120	337
121	39
122	86
123	171
124	34
125	5
127	28
128	60
129	114
130	6
131	324
132	117
133	365
134	14
135	270
136	66
137	104
138	6
139	89
140	13
141	45
142	4
143	204
144	110
145	609
146	19
147	366
148	115
149	179
150	4
151	63
152	30
153	25
154	2
155	42
156	29
157	148
158	14
159	457
160	298
161	406
162	9
163	222
164	38
165	64
166	2
167	12
169	33
170	19
171	13
172	60
173	221
174	86
175	11
176	25
177	86
178	22
179	4
180	12
181	19
183	32
185	14
186	65
187	141
188	43
189	88
190	25
191	77
192	59
193	8
194	14
195	17
197	48
198	3
199	169
200	70
201	119
202	3
203	59
204	15
205	73
206	5
207	33
208	13
209	14
211	3
212	23
213	438
214	140
215	12
216	29
217	50
218	18
219	7
220	26
221	12
225	11
226	1
227	84
228	135
229	119
230	3
231	23
232	11
233	52
234	1
239	24
240	14
241	67
242	2
243	22
245	113
246	71
247	35
248	85
249	14
253	14
254	2
255	447
256	106
257	24
259	4
260	70
261	46
262	17
269	2
271	15
273	27
274	109
275	45
276	102
277	14
283	36
284	1
285	25
286	15
287	101
288	4
297	14
299	26
300	38
301	27
302	71
311	42
312	19
313	5
314	34
323	13
324	15
325	3
326	216
327	138
328	59
329	33
330	88
331	15
339	50
340	5
341	17
342	10
343	16
351	2
353	760
354	218
355	41
358	2
366	23
367	33
368	999
369	31
370	49
371	20
372	19
385	23
386	72
387	15
398	24
399	2
400	273
401	77
402	13
