Mass spectrum: 3-AMINOPHENYL METHYL KETONE; EI-MS
Name: 3-AMINOACETOPHENONE
Formula: C8H9NO
Exact mass: 135.06841
Instrument type: EI-MS
m/z	relative intensity
38	19
39	83
40	12
41	2
42	11
43	112
44	27
46	4
50	14
51	18
52	29
53	1
60	39
62	17
63	43
64	4
65	271
66	48
76	12
77	2
91	31
92	737
93	80
106	2
119	16
120	966
121	80
134	1
135	999
136	98
