Mass spectrum: PARA-(ALPHA-METHYLBENZYL(5D))PHENOL; EI-MS
Formula: C14H14O
Exact mass: 198.10447
Instrument type: EI-MS
m/z	relative intensity
44	81
51	72
55	72
56	7
57	72
65	75
77	81
78	7
91	72
121	72
157	72
158	7
160	72
169	147
170	125
186	7
187	88
188	999
189	157
203	36
204	75
