Mass spectrum: 1,1-DIMETHYLHYDRAZINE; EI-MS
Formula: C2H8N2
Exact mass: 60.06875
Instrument type: EI-MS
m/z	relative intensity
27	38
28	275
29	76
30	27
31	46
40	30
41	43
42	62
43	253
44	119
45	459
46	1
57	15
58	13
59	485
60	999
61	39
