Mass spectrum: TRIETHYLENE GLYCOL MONOMETHYL ETHER; EI-MS
Formula: C7H16O4
Exact mass: 164.10486
Instrument type: EI-MS
m/z	relative intensity
29	34
31	45
43	23
44	90
45	882
58	519
59	999
60	44
72	10
73	15
75	59
76	12
87	111
88	121
89	585
90	37
101	36
102	88
103	94
119	76
133	32
