Mass spectrum: DIPHENYLAMINE; EI-MS
Formula: C12H11N
Exact mass: 169.08915
Instrument type: EI-MS
m/z	relative intensity
65	20
66	42
77	20
141	21
142	13
166	17
167	176
168	370
169	999
170	134
171	9
