Mass spectrum: (Z,Z)-9,15-OCTADECADIENOIC ACID METHYL ESTER; EI-MS
Formula: C19H34O2
Exact mass: 294.25588
Instrument type: EI-MS
m/z	relative intensity
40	33
41	902
42	113
43	188
45	54
51	17
52	11
53	128
54	304
55	808
56	59
57	60
59	212
60	10
65	42
66	69
67	999
68	333
69	471
70	35
71	20
73	45
74	149
77	40
79	163
80	112
81	697
82	786
83	207
84	32
87	102
91	23
93	65
94	60
95	454
96	382
97	91
98	34
101	26
105	12
107	54
108	41
109	213
110	268
111	85
115	26
121	68
122	36
123	156
124	140
125	50
127	19
129	26
135	47
136	39
137	82
138	40
139	21
149	24
150	44
151	31
152	11
157	29
163	25
164	26
178	27
179	11
192	16
206	21
238	14
251	18
252	12
263	48
294	47
295	21
