Mass spectrum: 6-PHENYL-2-HEXENYL VINYL ETHER; EI-MS
Name: 6-PHENYL-1-ETHENOXY-2-HEXENE
Formula: C14H18O
Exact mass: 202.13577
Instrument type: EI-MS
m/z	relative intensity
29	16
41	11
55	33
57	2
65	23
67	59
77	31
79	2
81	186
91	999
92	88
101	1
105	34
115	52
117	109
129	2
158	138
159	369
160	47
