Mass spectrum: OCTANOIC ACID TRIMETHYLSILYL ESTER; EI-MS
Formula: C11H24O2Si
Exact mass: 216.15456
Instrument type: EI-MS
m/z	relative intensity
43	88
45	84
55	126
67	8
73	683
74	98
75	869
76	9
109	80
117	535
118	84
129	21
131	239
132	197
145	119
201	999
202	186
203	84
