Mass spectrum: BUTYL LEVULINATE; EI-MS
Formula: C9H16O3
Exact mass: 172.10994
Instrument type: EI-MS
m/z	relative intensity
15	42
26	19
27	158
29	204
31	14
39	75
41	200
42	59
43	999
44	20
45	14
53	12
55	96
56	163
57	182
58	20
61	15
71	94
72	24
73	59
74	377
75	86
98	50
99	789
100	54
101	186
117	88
130	62
157	27
