Mass spectrum: NORDIHYDROHALKENDIN; EI-MS
Formula: C12H10O5
Exact mass: 234.05282
Instrument type: EI-MS
m/z	relative intensity
77	100
107	20
121	30
134	20
135	10
149	30
162	50
163	190
191	999
192	120
219	470
234	840
235	90
