Mass spectrum: PYRROBUTAMINE; EI-MS
Formula: C20H22ClN
Exact mass: 311.14408
Instrument type: EI-MS
m/z	relative intensity
55	79
56	44
57	44
58	7
67	19
68	34
69	59
70	15
71	124
72	19
75	19
76	2
77	104
78	24
82	29
83	3
84	174
85	24
89	69
90	2
91	259
92	29
96	84
97	2
98	29
101	49
102	49
103	6
104	24
105	159
106	19
115	16
116	54
117	94
118	19
125	28
126	39
127	134
128	109
129	17
130	59
131	29
132	9
162	3
163	39
164	26
165	54
166	2
176	24
177	24
178	59
179	2
184	59
185	24
186	199
187	3
188	4
189	29
190	29
191	4
192	24
200	19
201	24
202	6
203	79
204	99
205	999
206	17
207	39
208	9
238	16
239	3
240	544
241	119
242	249
243	5
244	21
306	4
307	14
308	1
309	29
310	44
311	89
312	3
313	34
314	14
