Mass spectrum: 6-CARBOXY-4'-IODOFLAVONOL; EI-MS
Name: 3-HYDROXY-2-(4-IODOPHENYL)-4-OXO-4H-CHROMEN-6-CARBOXYLIC ACID
Formula: C16H9IO5
Exact mass: 407.94947
Instrument type: EI-MS
m/z	relative intensity
32	41
39	97
44	67
45	5
50	128
51	205
52	79
53	10
62	74
63	233
64	41
69	13
74	87
75	113
76	159
77	49
78	59
81	54
89	59
90	5
91	103
101	44
102	313
103	46
104	79
119	215
127	103
128	14
130	123
136	136
147	46
149	14
164	215
165	292
190	72
191	39
217	146
230	999
231	103
267	21
268	54
377	67
393	313
394	74
395	128
408	49
