Mass spectrum: (Z)-3,7-DIMETHYL-2,6-OCTADIEN-1-OL; EI-MS
Name: NEROL
Formula: C10H18O
Exact mass: 154.13577
Instrument type: EI-MS
m/z	relative intensity
29	24
41	404
42	20
43	4
53	12
55	50
56	26
57	3
59	28
67	83
68	198
69	999
70	73
71	72
72	17
77	2
79	34
80	131
81	66
82	1
83	66
84	181
85	26
91	2
92	57
93	283
94	50
95	3
107	30
109	18
110	17
111	7
112	17
121	110
122	10
123	7
136	59
139	40
154	39
