Mass spectrum: CIS-ISOFLAVAN-4-OL; EI-MS
Name: 4-HYDROXY-CIS-3-PHENYLCHROMAN
Formula: C15H14O2
Exact mass: 226.09938
Instrument type: EI-MS
m/z	relative intensity
104	999
105	600
106	60
121	5
122	830
123	86
131	30
207	9
208	270
209	40
226	450
227	83
