Mass spectrum: 1-ISOPROPYL-3-METHYL-2-PYRAZOLINE; EI-MS
Formula: C7H14N2
Exact mass: 126.1157
Instrument type: EI-MS
m/z	relative intensity
26	15
27	64
28	119
29	4
30	24
39	55
40	19
41	11
42	333
43	67
44	24
45	1
53	12
54	36
55	31
56	15
57	16
58	14
68	31
69	3
70	36
71	14
82	16
83	24
84	45
100	14
109	11
111	999
112	86
125	22
126	238
127	24
