Mass spectrum: AMYL SALICYLATE; EI-MS
Formula: C12H16O3
Exact mass: 208.10994
Instrument type: EI-MS
m/z	relative intensity
38	11
39	131
41	122
42	30
43	172
53	23
55	64
63	30
64	40
65	138
66	11
70	18
92	166
93	63
120	999
121	265
122	18
138	297
139	30
208	125
209	14
