Mass spectrum: L-MENTHYL 3-ETHYL-4-OXOTRICYCLO(4.3.0.0(1,))NONANE-5-CARBOXYLATE; EI-MS
Formula: C22H34O3
Exact mass: 346.25079
Instrument type: EI-MS
m/z	relative intensity
39	120
40	30
41	440
42	70
43	360
44	70
45	20
50	20
51	40
52	30
53	80
54	50
55	620
56	120
57	480
58	30
60	20
63	20
64	20
65	40
66	30
67	260
68	80
69	420
70	70
71	110
73	20
77	160
78	50
79	190
80	130
81	420
82	130
83	890
84	80
85	40
86	20
91	100
92	30
93	170
94	100
95	450
96	110
97	170
98	30
99	30
102	20
103	20
104	20
105	50
106	30
107	80
108	40
109	60
110	30
111	30
113	20
115	20
117	30
119	30
120	40
121	80
122	30
123	190
124	40
125	30
127	20
129	20
131	20
133	30
134	50
135	130
136	60
137	40
138	400
139	220
140	30
141	30
143	20
145	20
147	20
149	70
151	20
152	200
153	30
161	30
162	120
163	100
164	440
165	80
166	20
167	20
175	20
179	20
180	210
181	30
186	20
189	30
190	230
191	999
192	50
193	30
208	380
209	520
210	20
346	8
347	6
