Mass spectrum: 2-(4-METHOXYPHENYL)-5-NITROPYRIMIDINE; EI-MS
Formula: C11H9N3O3
Exact mass: 231.06439
Instrument type: EI-MS
m/z	relative intensity
38	14
39	32
40	11
41	4
42	30
43	24
44	27
45	1
50	21
51	18
52	18
53	1
54	11
55	23
56	13
57	4
59	3
60	15
61	4
62	1
63	35
64	38
65	27
66	0
67	7
68	4
69	17
70	5
71	36
72	16
73	15
74	1
75	14
76	27
77	73
78	2
79	15
80	9
81	9
82	1
83	9
84	4
85	10
87	0
88	5
89	6
90	30
91	4
92	32
93	6
94	4
95	1
96	3
97	10
102	16
103	4
104	11
105	8
106	4
107	4
108	11
111	6
113	3
114	1
115	18
116	5
117	10
118	1
119	54
133	114
134	324
135	2
142	19
143	6
146	18
149	8
150	238
151	27
158	145
159	1
170	32
171	10
172	4
173	2
174	9
179	9
185	152
187	1
201	27
231	999
232	108
