Mass spectrum: HEPTANOIC ACID; EI-MS
Formula: C7H14O2
Exact mass: 130.09938
Instrument type: EI-MS
m/z	relative intensity
15	14
26	18
27	196
28	29
29	163
31	22
39	98
40	21
41	306
42	67
43	264
45	105
53	20
54	11
55	171
56	35
57	26
59	33
60	999
61	96
68	19
69	39
70	128
71	112
73	482
74	49
83	26
84	32
87	199
88	15
101	52
