Mass spectrum: TERT-BUTYL 2-PICOLYL SULFIDE; EI-MS
Formula: C10H15NS
Exact mass: 181.09252
Instrument type: EI-MS
m/z	relative intensity
29	110
39	70
41	150
57	30
65	100
78	100
79	130
80	1
92	90
93	110
124	370
125	999
126	100
166	20
181	50
182	7
