Mass spectrum: 2,3-DIMETHYLBENZENAMINE; EI-MS
Name: 2,3-XYLIDINE
Formula: C8H11N
Exact mass: 121.08915
Instrument type: EI-MS
m/z	relative intensity
27	41
28	46
30	20
38	19
39	92
40	13
41	36
42	43
465	19
50	27
51	63
52	44
53	60
54	30
585	39
59	10
595	39
60	10
605	35
62	14
63	35
64	13
65	57
66	21
67	12
76	12
77	164
78	78
79	63
80	30
89	17
91	98
92	24
93	54
94	22
102	16
103	82
104	61
105	24
106	700
107	61
117	14
118	43
119	35
120	495
121	999
122	95
