Mass spectrum: 2-CHLORO-4-NITROBENZOIC ACID METHYL ESTER; EI-MS
Formula: C8H6ClNO4
Exact mass: 214.99854
Instrument type: EI-MS
m/z	relative intensity
50	47
51	29
59	77
63	10
73	35
74	233
75	371
76	3
77	41
84	29
109	35
110	16
111	29
112	29
119	71
126	15
128	47
137	47
138	299
139	4
140	95
154	215
156	35
184	999
185	95
186	329
187	29
198	4
215	269
217	71
