Mass spectrum: 2-BUTOXY-4-QUINOLINECARBOXYLIC ACID TRIMETHYLSILYL ESTER; EI-MS
Formula: C17H23NO3Si
Exact mass: 317.14472
Instrument type: EI-MS
m/z	relative intensity
43	6
56	35
68	2
71	2
72	112
73	11
74	210
75	13
76	69
77	5
81	3
84	1
92	7
95	4
97	3
116	14
117	17
119	1
125	2
128	4
129	3
131	2
132	9
133	2
135	3
142	4
143	12
144	37
145	16
146	3
147	1
155	2
156	7
157	2
158	2
159	2
169	3
170	7
171	9
172	53
173	8
174	10
175	2
179	1
181	3
184	3
185	2
186	10
187	3
188	1
189	4
193	2
198	6
199	29
200	30
201	13
202	65
203	17
204	7
207	2
215	9
216	26
217	10
218	31
219	7
220	1
226	1
227	4
228	32
229	6
230	9
232	101
233	25
234	13
235	5
236	2
240	3
242	1
243	5
244	46
245	133
246	849
247	193
248	59
249	8
258	35
259	83
260	54
261	999
262	286
263	85
264	12
272	71
273	28
274	276
275	74
276	19
277	3
281	1
286	18
287	166
288	128
289	30
290	7
300	1
301	4
302	251
303	61
304	16
305	2
313	5
316	40
317	272
318	72
319	12
320	2
