Mass spectrum: ALPHA-PHENYLBUTYRIC ACID; EI-MS
Formula: C10H12O2
Exact mass: 164.08373
Instrument type: EI-MS
m/z	relative intensity
27	33
28	31
29	11
39	85
41	129
50	26
51	78
52	24
53	11
62	13
63	41
64	13
65	46
75	11
76	11
77	96
78	70
79	81
80	33
89	33
90	31
91	999
92	133
102	11
103	44
104	39
105	13
107	26
108	20
115	39
116	11
117	39
118	28
119	624
120	68
