Mass spectrum: 7,8-ETHYLENE-3A,8A-DIMETHYL-2,3,3A,8A-TETRAHYDROPYRROLO(2,3-B)INDOLE; EI-MS
Formula: C14H18N2
Exact mass: 214.147
Instrument type: EI-MS
m/z	relative intensity
30	40
40	28
41	115
42	12
43	31
50	34
51	84
52	5
53	52
54	68
55	195
56	9
58.5	38
62	28
63	93
64	4
65	100
66	22
67	23
68	2
75	26
76	28
77	20
78	5
79	30
80	43
81	17
82	2
88	19
89	128
90	111
91	21
92	28
93	22
94	64
95	4
96	56
97	34
101	22
102	4
103	63
104	33
105	29
114	2
115	199
116	94
117	354
118	47
119	212
120	28
127	63
128	11
129	100
130	235
131	87
132	12
133	26
140	22
141	63
142	10
143	195
144	300
145	108
146	6
154	106
155	71
156	50
157	20
158	999
159	208
160	68
161	2
162	17
167	40
168	70
169	7
170	967
171	400
172	700
173	27
174	119
175	155
176	28
182	5
183	33
184	120
185	70
186	12
187	50
188	31
196	23
197	5
198	47
199	133
200	36
201	2
202	21
203	19
210	14
211	1
212	68
213	89
214	467
215	93
