Mass spectrum: METHYL (3R)-3-(TERT-BUTYLDIMETHYLSILOXY)-6-METHYL-6-HEPTENOATE; EI-MS
Formula: C15H30O3Si
Exact mass: 286.19642
Instrument type: EI-MS
m/z	relative intensity
75	131
81	999
89	56
90	3
103	286
111	34
154	78
157	14
173	82
216	19
227	22
229	68
230	131
231	87
232	39
271	29
