Mass spectrum: DODECAMETHYLCYCLOHEXASILANE; EI-MS
Formula: C12H36Si6
Exact mass: 348.14326
Instrument type: EI-MS
m/z	relative intensity
43	37
44	10
45	93
59	140
60	11
69	14
71	11
73	999
74	86
75	39
85	30
87	10
99	76
100	16
101	45
103	11
111	14
113	59
114	13
115	71
116	32
117	37
125	60
126	15
127	46
128	13
129	73
130	12
131	72
132	11
141	54
142	17
143	66
144	15
145	27
155	27
157	131
158	33
159	49
160	10
169	15
171	80
172	19
173	42
174	11
183	17
185	65
186	50
187	54
188	18
197	17
199	122
200	68
201	468
202	139
203	80
204	19
213	51
214	18
215	267
216	84
217	77
218	20
229	25
231	10
245	14
257	14
259	143
260	75
261	39
262	14
273	27
274	36
275	77
276	30
277	17
330	12
348	339
349	149
350	98
351	31
352	11
