Mass spectrum: 1,4,5,7-TETRA-O-ACETYL-2,6-ANHYDRO-3-DEOXY-D-GLUCO-HEPTITOL; EI-MS
Formula: C15H22O9
Exact mass: 346.12638
Instrument type: EI-MS
m/z	relative intensity
51	22
54	178
62	22
67	7
69	556
70	133
80	22
81	31
83	533
84	111
85	44
93	58
95	111
99	267
100	778
102	18
103	289
110	67
111	889
112	13
122	22
124	667
142	289
144	7
145	133
153	333
155	44
166	22
171	133
184	999
185	222
201	18
213	222
226	111
244	22
273	2
286	22
