Mass spectrum: 15-METHYLHEXADECANOIC ACID METHYL ESTER; EI-MS
Formula: C18H36O2
Exact mass: 284.27153
Instrument type: EI-MS
m/z	relative intensity
43	20
53	11
54	13
55	26
56	24
57	99
59	51
67	2
68	18
69	128
70	18
71	3
73	15
74	999
75	225
77	2
79	15
81	36
83	99
84	2
85	15
87	704
88	54
95	3
97	94
98	29
99	11
101	8
109	11
111	33
120	13
123	2
125	22
129	58
130	15
138	2
143	202
144	13
157	27
171	2
172	13
184	27
185	47
199	9
200	13
213	24
216	11
227	3
229	11
241	150
242	29
243	1
253	15
255	20
284	92
285	20
