Mass spectrum: 2-ALLYLOXYETHANOL; EI-MS
Name: ETHYLENGLYCOL MONOALLYL ETHER
Formula: C5H10O2
Exact mass: 102.06808
Instrument type: EI-MS
m/z	relative intensity
18	45
27	90
28	42
29	68
30	31
31	388
39	162
40	34
41	999
42	215
43	116
44	56
45	296
54	10
55	33
56	30
57	152
58	397
59	68
61	16
71	85
