Mass spectrum: VALERIC  ACID METHYL ESTER; EI-MS
Formula: C6H12O2
Exact mass: 116.08373
Instrument type: EI-MS
m/z	relative intensity
15	112
27	126
28	39
29	266
31	35
39	67
40	18
41	254
42	58
43	398
44	47
45	27
55	130
56	67
57	366
58	20
59	210
73	17
74	999
75	40
85	363
86	26
87	289
88	28
101	20
