Mass spectrum: TETRAETHYLAMMONIUM IODIDE; EI-MS
Formula: C8H20IN
Exact mass: 257.06404
Instrument type: EI-MS
m/z	relative intensity
29	999
56	240
58	740
70	8
72	97
86	990
87	75
100	7
101	110
102	13
127	730
128	9
130	43
156	510
254	2
