Mass spectrum: ALPHA-ETHY-ALPHA-PHENYLACETIC ACID TRIMETHYLSILYL ESTER; EI-MS
Name: TRIMETHYLSILYL 2-PHENYLBUTYRATE
Formula: C13H20O2Si
Exact mass: 236.12326
Instrument type: EI-MS
m/z	relative intensity
43	43
44	43
45	250
47	13
51	50
61	43
73	918
74	37
75	875
76	50
77	362
78	4
89	43
90	50
91	387
115	5
117	231
118	999
119	75
147	3
148	50
192	393
193	50
221	36
222	43
