Mass spectrum: PHENYLURETHANE; EI-MS
Name: ETHYL N-PHENYLCARBAMATE
Formula: C9H11NO2
Exact mass: 165.07898
Instrument type: EI-MS
m/z	relative intensity
39	42
41	11
45	36
46	15
51	19
52	11
63	33
64	101
65	213
66	133
67	16
77	103
78	16
79	47
80	11
90	13
91	202
92	205
93	999
94	79
104	12
105	13
106	704
107	67
119	324
120	113
121	13
136	13
137	40
165	709
166	75
