Mass spectrum: 3-(3-AMINOPROPYL)-2,7-DIMETHYLINDOLE; EI-MS
Formula: C13H18N2
Exact mass: 202.147
Instrument type: EI-MS
m/z	relative intensity
27	89
29	52
31	12
36	1
38	14
39	60
40	26
41	10
42	58
43	100
45	18
50	1
51	20
52	14
53	20
54	2
55	68
56	48
57	60
60	2
63	17
65	22
66	10
67	3
68	16
69	34
70	20
71	2
73	12
77	38
78	20
79	3
80	12
81	24
82	16
83	2
84	16
85	14
89	20
91	6
93	24
94	10
95	18
96	1
97	18
98	16
101	18
102	2
103	16
104	12
105	14
106	2
107	18
109	10
115	119
116	4
117	28
118	10
127	26
128	10
129	46
130	38
131	30
132	1
133	10
141	26
142	48
143	11
144	235
145	129
146	84
147	1
154	46
155	42
156	114
157	25
158	999
159	225
160	22
167	2
168	34
169	32
170	195
171	7
172	127
173	36
180	10
181	1
182	30
183	22
184	106
185	35
186	58
198	10
200	16
202	37
203	58
