Mass spectrum: DIALLYLHYDRAZONE ACRYLALDEHYDE; EI-MS
Name: ACRYLALDEHYDE DIALLYLHYDRAZONE
Formula: C9H14N2
Exact mass: 150.1157
Instrument type: EI-MS
m/z	relative intensity
29	40
38	18
39	315
40	14
41	999
42	62
52	9
53	17
54	75
55	88
56	23
65	2
66	22
67	29
68	55
69	5
77	20
79	78
80	21
81	25
82	27
94	18
95	9
107	1
109	122
110	9
123	33
124	0
149	9
150	220
151	22
