Mass spectrum: M-METHYLACETOPHENONE; EI-MS
Name: 3-METHYLACETOPHENONE
Formula: C9H10O
Exact mass: 134.07316
Instrument type: EI-MS
m/z	relative intensity
15	27
27	21
38	23
39	166
41	27
42	13
43	185
46	12
50	47
51	85
52	15
59	10
61	11
62	36
63	132
64	27
65	253
66	12
74	14
75	11
77	25
89	88
90	34
91	895
92	74
119	999
120	86
134	371
135	30
