Mass spectrum: ETHYL VALERATE; EI-MS
Formula: C7H14O2
Exact mass: 130.09938
Instrument type: EI-MS
m/z	relative intensity
15	27
26	49
27	442
28	186
29	944
30	22
31	27
38	12
39	164
40	20
41	437
42	125
43	139
44	15
45	201
51	10
53	23
55	160
56	109
57	672
58	31
59	22
60	460
61	235
70	173
73	252
74	25
83	19
84	12
85	884
86	42
87	23
88	999
89	37
101	248
102	28
103	72
115	19
130	19
