Mass spectrum: N-(2-ACETOXY-2-METHYLPROPIONYL)-N-BUTYLBENZAMIDE; EI-MS
Formula: C17H23NO4
Exact mass: 305.16271
Instrument type: EI-MS
m/z	relative intensity
41	51
43	549
51	53
59	131
77	262
101	167
105	999
106	70
129	58
135	109
160	70
177	105
205	201
305	3
306	6
