Mass spectrum: 2-METHYL-8-METHOXY-(5,6)-BENZOCHROMONE; EI-MS
Formula: C15H12O3
Exact mass: 240.07864
Instrument type: EI-MS
m/z	relative intensity
18	60
28	70
39	50
63	50
75	70
101	120
115	60
129	60
157	40
169	330
170	80
171	50
212	60
225	160
240	999
241	160
