Mass spectrum: ETHYLENE GLYCOL MONOALLYL ETHER; EI-MS
Formula: C5H10O2
Exact mass: 102.06808
Instrument type: EI-MS
m/z	relative intensity
27	50
28	30
29	40
31	29
32	10
39	95
40	35
41	999
42	257
43	160
44	77
45	33
46	15
54	15
55	45
56	5
57	237
58	723
59	115
61	3
69	17
71	237
72	15
83	2
84	10
85	12
