Mass spectrum: ALLANTOIN; EI-MS
Formula: C4H6N4O3
Exact mass: 158.04399
Instrument type: EI-MS
m/z	relative intensity
16	132
17	470
27	41
29	135
30	45
42	78
43	358
44	999
45	72
55	37
60	295
70	64
71	24
87	298
100	30
114	47
115	99
130	260
141	34
