Mass spectrum: TRIMETHYLENE OXIDE; EI-MS
Formula: C3H6O
Exact mass: 58.04186
Instrument type: EI-MS
m/z	relative intensity
26	56
27	89
28	999
29	136
30	75
31	65
57	112
58	636
59	28
