Mass spectrum: 4-ETHYL-2,5-DIMETHYLOXAZOLE; EI-MS
Formula: C7H11NO
Exact mass: 125.08406
Instrument type: EI-MS
m/z	relative intensity
41	10
42	310
43	767
54	19
55	93
56	39
68	30
69	999
70	89
82	216
83	49
84	211
96	20
97	10
110	960
111	190
124	189
125	760
126	181
127	10
