Mass spectrum: N,N-DIMETHYL-4-NITROANILINE; EI-MS
Formula: C8H10N2O2
Exact mass: 166.07423
Instrument type: EI-MS
m/z	relative intensity
18	10
28	11
30	37
39	19
41	10
42	93
46	14
50	35
51	31
52	14
62	9
63	40
64	16
65	32
66	17
67	15
68	10
69	8
74	18
75	19
76	32
77	95
78	46
79	55
80	12
90	27
91	53
92	36
93	25
94	7
103	15
104	74
105	118
106	17
107	6
108	46
117	12
118	55
119	182
120	105
121	13
136	293
137	27
149	5
150	26
163	10
165	191
166	999
167	103
168	11
169	8
