Mass spectrum: 2,4-OCTADIENOIC ACID; EI-MS
Formula: C8H12O2
Exact mass: 140.08373
Instrument type: EI-MS
m/z	relative intensity
31	17
37	13
38	44
39	45
41	421
42	285
43	114
44	1
45	100
47	5
50	44
51	10
52	62
53	209
54	42
55	35
56	26
57	36
59	5
60	1
61	5
62	15
63	46
64	1
65	209
66	108
67	278
68	10
69	79
70	243
71	29
73	1
74	6
75	8
77	97
78	3
79	171
80	62
81	133
82	2
83	71
84	98
85	8
86	6
91	34
92	5
93	54
94	6
95	258
96	31
97	999
98	29
99	95
100	5
107	22
111	6
112	9
122	9
123	17
125	3
140	324
141	30
