Mass spectrum: CIS-3-HEPTENYL ACETATE; EI-MS
Formula: C9H16O2
Exact mass: 156.11503
Instrument type: EI-MS
m/z	relative intensity
15	57
27	109
28	22
29	75
39	119
40	16
41	173
42	39
43	999
44	21
51	12
53	49
54	525
55	178
56	11
65	14
67	244
68	56
73	30
79	14
81	342
82	22
95	16
96	257
97	23
