Mass spectrum: SEC-BUTYL ACETATE; EI-MS
Formula: C6H12O2
Exact mass: 116.08373
Instrument type: EI-MS
m/z	relative intensity
14	50
18	100
25	65
26	7
27	105
29	10
39	45
40	2
41	140
42	20
43	999
44	3
45	35
55	245
56	80
61	4
72	15
73	60
88	200
89	3
101	30
115	10
