Mass spectrum: 1-METHYL-3-(TETRAHYDRO-2-FURANYL)-5-FLUOROURACIL; EI-MS
Formula: C9H11FN2O3
Exact mass: 214.07537
Instrument type: EI-MS
m/z	relative intensity
41	170
42	230
43	380
69	1
70	450
71	999
72	130
73	1
101	160
102	120
115	30
116	1
117	30
142	60
144	440
145	8
146	100
158	60
169	90
170	0
171	120
186	50
214	160
215	40
