Mass spectrum: 2-HEXANOL; EI-MS
Formula: C6H14O
Exact mass: 102.10447
Instrument type: EI-MS
m/z	relative intensity
15	30
19	14
27	126
28	61
29	188
31	19
39	92
40	13
41	324
42	163
43	702
44	101
45	999
46	23
53	21
54	13
55	230
56	136
57	124
58	297
59	25
67	11
69	186
70	12
71	35
84	92
85	68
87	43
100	32
101	11
