Mass spectrum: 2-METHYL-1-BUTANOL; EI-MS
Formula: C5H12O
Exact mass: 88.08882
Instrument type: EI-MS
m/z	relative intensity
27	58
28	31
29	483
30	14
31	234
33	12
39	55
40	14
41	707
42	168
43	150
45	70
53	14
55	300
56	925
57	999
58	49
59	39
69	21
70	517
71	117
87	8
88	4
