Mass spectrum: SALICYLIC ALDEHYDE; EI-MS
Name: 2-HYDROXYBENZALDEHYDE
Formula: C7H6O2
Exact mass: 122.03678
Instrument type: EI-MS
m/z	relative intensity
27	18
29	18
39	478
40	135
50	31
51	31
53	29
55	34
64	35
65	582
66	220
67	21
75	11
76	378
77	41
92	24
93	261
94	135
104	236
105	20
120	34
121	882
122	999
123	90
