Mass spectrum: METHYL (3,4-METHYLENEDIOXY)-ALPHA-METHYLCINNAMATE; EI-MS
Formula: C12H12O4
Exact mass: 220.07356
Instrument type: EI-MS
m/z	relative intensity
39	55
50	56
51	110
53	37
62	63
63	140
65	118
74	42
75	65
76	76
77	280
78	38
79	30
91	50
93	130
101	26
102	281
103	665
104	82
119	38
121	37
130	60
131	315
132	42
135	63
145	40
147	60
151	305
159	242
160	935
161	228
162	63
165	60
189	208
190	28
219	53
220	999
221	133
