Mass spectrum: DIISOPROPYL KETONE; EI-MS
Name: 2,4-DIMETHYL-3-PENTANONE
Formula: C7H14O
Exact mass: 114.10447
Instrument type: EI-MS
m/z	relative intensity
42	58
43	999
70	80
71	366
72	20
114	82
