Mass spectrum: 2-BUTYL-4,5-DIMETHLTHIAZOLE; EI-MS
Formula: C9H15NS
Exact mass: 169.09252
Instrument type: EI-MS
m/z	relative intensity
41	17
42	16
45	25
53	45
59	14
68	49
71	230
85	99
86	290
87	121
94	21
112	30
126	349
127	999
128	251
129	160
140	381
141	161
142	23
154	122
168	19
169	190
170	22
