Mass spectrum: 3,7-DIMETHOXYCOUMARIN; EI-MS
Formula: C11H10O4
Exact mass: 206.05791
Instrument type: EI-MS
m/z	relative intensity
92	90
119	20
120	20
135	260
149	60
161	30
163	850
164	80
177	200
191	20
192	30
205	30
206	999
207	100
