Mass spectrum: ISOPROPYLHYDRAZONE ACETONE; EI-MS
Name: ACETONE ISOPROPYLHYDRAZONE
Formula: C6H14N2
Exact mass: 114.1157
Instrument type: EI-MS
m/z	relative intensity
27	114
28	169
29	69
30	13
31	29
32	29
39	97
40	3
41	197
42	217
43	120
44	9
54	37
55	69
56	999
57	17
58	111
71	57
72	46
82	1
83	9
99	886
100	7
113	2
114	315
115	31
