Mass spectrum: TRIPHENYLSILANE; EI-MS
Formula: C18H16Si
Exact mass: 260.10213
Instrument type: EI-MS
m/z	relative intensity
51	15
53	62
77	16
78	29
79	45
91	17
103	25
104	11
105	236
106	33
107	11
129	21
154	11
155	39
179	14
180	125
181	508
182	999
183	245
184	60
259	63
260	118
261	31
