Mass spectrum: 3,5-BIS(METHOXYCARBONYLMETHYL)CYCLOPENTENE; EI-MS
Formula: C11H16O4
Exact mass: 212.10486
Instrument type: EI-MS
m/z	relative intensity
18	178
58	93
66	595
67	16
74	60
78	294
79	130
92	30
107	225
108	70
113	225
114	10
119	120
120	90
121	60
122	8
129	88
131	60
138	700
139	999
140	146
145	660
146	129
151	37
152	795
159	146
166	119
178	14
179	286
180	437
181	208
182	12
210	125
212	119
