Mass spectrum: DIBUTYL 1-(N-TRIFUOROACETYLAMINO)PROPYLPHOSPHONATE; EI-MS
Formula: C13H25F3NO4P
Exact mass: 347.14733
Instrument type: EI-MS
m/z	relative intensity
57	10
69	13
82	42
83	58
85	10
96	12
97	12
99	9
109	42
110	30
111	13
120	1
122	16
123	219
124	14
126	7
136	25
137	96
138	510
139	999
140	71
150	19
152	15
153	2
154	472
155	121
165	11
166	5
179	29
194	139
195	17
206	5
207	37
208	25
211	43
218	12
220	16
235	21
236	180
237	1
274	22
292	42
347	7
348	14
