Mass spectrum: 2-ETHYLHEXANOIC ACID; EI-MS
Formula: C8H16O2
Exact mass: 144.11503
Instrument type: EI-MS
m/z	relative intensity
15	16
26	18
27	325
28	25
29	338
31	18
39	207
40	26
41	465
42	63
43	219
45	120
51	12
53	34
54	11
55	205
56	43
57	322
58	13
59	23
60	20
67	12
68	12
69	58
70	28
71	11
73	965
74	42
83	16
86	12
87	197
88	999
89	39
97	10
101	162
102	11
115	84
116	142
117	10
