Mass spectrum: METHYLAL; EI-MS
Name: DIMETHOXYMETHANE
Formula: C3H8O2
Exact mass: 76.05243
Instrument type: EI-MS
m/z	relative intensity
15	76
29	94
31	40
44	17
45	999
46	26
47	41
75	624
76	21
