Mass spectrum: TETRAMETHYLSILANE; EI-MS
Formula: C4H12Si
Exact mass: 88.07083
Instrument type: EI-MS
m/z	relative intensity
15	69
27	13
28	11
29	29
31	19
42	24
43	97
44	24
45	126
53	18
55	18
57	13
58	16
59	19
73	999
74	83
75	36
88	10
