Mass spectrum: METHYL M-CHLOROBENZOATE; EI-MS
Name: 2-CHLOROBENZOIC ACID METHYL ESTER
Formula: C8H7ClO2
Exact mass: 170.01346
Instrument type: EI-MS
m/z	relative intensity
50	110
74	59
75	256
76	68
111	500
113	164
139	999
140	97
141	398
170	426
172	140
