Mass spectrum: METHYL 3-ETHYL-4-HYDROXYTRICYCLO(4.3.0.0(1,5))NONANE-5-CARBOXYLATE; EI-MS
Formula: C13H20O3
Exact mass: 224.14124
Instrument type: EI-MS
m/z	relative intensity
40	40
41	400
42	30
43	130
45	30
51	70
52	40
53	140
54	30
55	260
56	20
57	170
58	20
59	150
63	30
65	120
66	70
67	200
68	30
69	80
71	50
77	270
78	70
79	310
80	70
81	180
82	30
83	60
85	20
90	20
91	410
92	70
93	320
94	60
95	90
96	20
97	30
103	40
104	20
105	430
106	50
107	140
108	320
109	80
111	20
115	80
116	30
117	260
118	60
119	270
120	40
121	180
122	40
123	40
127	20
128	20
129	20
131	60
132	20
133	70
135	100
136	999
137	130
140	210
141	20
144	20
145	120
146	70
147	560
148	70
149	50
150	30
151	30
152	30
153	60
154	20
163	70
164	160
165	480
166	60
168	90
169	40
174	50
175	60
176	40
177	430
178	70
190	100
191	250
192	110
206	180
207	40
223	30
224	140
225	20
