Mass spectrum: ALLYL 2-FURYL KETONE; EI-MS
Formula: C8H8O2
Exact mass: 136.05243
Instrument type: EI-MS
m/z	relative intensity
69	32
79	36
95	999
96	55
107	70
108	278
136	374
137	38
