Mass spectrum: NOREPINEPHIRINE; EI-MS
Name: 4-(2-AMINO-1-HYDROXYETHYL)-1,2-BENZENEDIOL
Formula: C8H11NO3
Exact mass: 169.07389
Instrument type: EI-MS
m/z	relative intensity
30	346
31	27
65	99
83	1
93	397
94	37
95	13
111	23
112	17
122	31
123	33
124	2
129	10
134	15
137	44
138	13
139	999
140	279
141	25
151	7
152	35
169	124
170	21
