Mass spectrum: 1,2-BENZENEDICARBOXYLIC ACID DIISOPROPYL ESTER; EI-MS
Name: DIISOPROPYL PHTHALATE
Formula: C14H18O4
Exact mass: 250.12051
Instrument type: EI-MS
m/z	relative intensity
27	38
31	10
39	33
41	73
42	18
43	105
45	13
50	21
51	10
59	18
65	32
76	32
77	12
93	21
104	24
105	32
121	27
122	36
149	999
150	106
167	39
191	28
192	24
209	30
