Mass spectrum: ETHYL 2-PYRROLIDONYLACETATE; EI-MS
Name: N-ETHOXYCARBONYLMETHYL-2-PYRROLIDONE
Formula: C8H13NO3
Exact mass: 171.08954
Instrument type: EI-MS
m/z	relative intensity
27	32
28	58
29	31
30	1
39	23
41	118
42	88
43	4
68	34
69	112
70	276
71	2
84	171
97	12
98	999
99	7
126	48
171	214
172	22
