Mass spectrum: 1,4-CINEOLE; EI-MS
Name: 1-METHYL-4-ISOPROPYL-8-OXABICYCLO(2.2.1)HEPTANE
Formula: C10H18O
Exact mass: 154.13577
Instrument type: EI-MS
m/z	relative intensity
15	29
26	11
27	225
28	18
29	107
39	190
40	30
41	440
42	41
43	999
44	26
45	12
51	21
52	12
53	106
54	37
55	406
56	32
57	22
58	114
59	12
65	21
66	10
67	115
68	98
69	352
70	35
71	598
72	31
77	22
79	29
81	173
82	29
83	159
84	59
85	12
86	86
91	13
93	70
95	31
96	88
97	55
98	11
107	35
108	20
109	13
110	40
111	736
112	64
121	55
125	287
126	56
139	93
154	261
155	25
