Mass spectrum: TETRAPHENYLTIN; EI-MS
Formula: C24H20Sn
Exact mass: 428.0587
Instrument type: EI-MS
m/z	relative intensity
45	43
50	101
51	388
52	40
55	72
56	25
57	94
60	40
70	11
71	32
73	29
74	14
75	14
77	144
78	47
83	18
85	22
112	36
113	11
114	18
115	36
116	457
117	266
118	759
119	270
120	999
121	22
122	147
124	169
141	14
143	25
145	32
151	14
152	86
153	61
154	90
155	18
169	11
189	18
191	18
192	25
193	342
194	219
195	568
196	259
197	745
198	47
199	101
200	11
201	122
268	14
269	25
270	180
271	140
272	306
273	180
274	371
275	47
276	54
278	58
343	25
345	18
346	22
347	381
348	313
349	737
350	421
351	928
352	187
353	144
354	29
355	158
356	25
