Mass spectrum: 1,2-DI-SEC-BUTYLHYDRAZINE; EI-MS
Formula: C8H20N2
Exact mass: 144.16265
Instrument type: EI-MS
m/z	relative intensity
27	157
29	395
30	124
31	34
39	74
41	310
42	220
43	9
44	537
45	32
55	188
56	8
57	544
58	80
59	521
70	8
72	466
73	66
85	28
87	16
88	11
99	7
115	999
116	10
129	134
130	11
144	432
145	65
