Mass spectrum: 3-ACETYL-1-METHYLINDOLE; EI-MS
Formula: C11H11NO
Exact mass: 173.08406
Instrument type: EI-MS
m/z	relative intensity
39	10
43	24
63	22
72.5	1
75	10
77	118
79	20
89	3
101	13
102	34
103	79
115	2
128	17
129	14
130	84
158	999
159	90
173	462
174	36
