Mass spectrum: ACETIC ACID PARA-TOLYL ESTER; EI-MS
Formula: C9H10O2
Exact mass: 150.06808
Instrument type: EI-MS
m/z	relative intensity
43	78
77	32
78	8
79	41
80	34
90	34
91	17
107	256
108	999
109	78
150	131
151	14
