Mass spectrum: 4-METHYL-2H-PYRAN; EI-MS
Formula: C6H8O
Exact mass: 96.05751
Instrument type: EI-MS
m/z	relative intensity
29	46
39	275
40	21
41	20
43	121
53	165
67	186
81	47
95	449
96	999
