Mass spectrum: 1,1-DICHLOROETHANE; EI-MS
Formula: C2H4Cl2
Exact mass: 97.96901
Instrument type: EI-MS
m/z	relative intensity
25	31
26	132
27	428
28	4
35	58
36	29
37	24
47	3
60	35
61	89
62	84
63	999
64	42
65	314
83	129
85	8
98	68
100	36
