Mass spectrum: 1-ACETYL-1-METHYL-4-METHYLENECYCLOHEXANE; EI-MS
Formula: C10H16O
Exact mass: 152.12012
Instrument type: EI-MS
m/z	relative intensity
41	399
43	546
51	40
53	134
55	288
57	167
59	45
65	66
67	752
68	346
69	77
77	93
79	146
80	49
81	256
85	791
86	44
91	71
93	101
94	82
107	43
108	72
109	999
110	96
137	216
152	310
153	35
