Mass spectrum: TRIETHYL PHOSPHATE; EI-MS
Formula: C6H15O4P
Exact mass: 182.0708
Instrument type: EI-MS
m/z	relative intensity
45	290
47	77
65	104
81	456
82	313
83	98
91	74
99	999
109	347
110	78
111	118
125	19
126	52
127	461
137	74
138	9
139	83
153	48
155	889
156	4
167	55
181	54
182	225
183	83
184	72
