Mass spectrum: DIMETHYL PHTHALATE; EI-MS
Formula: C10H10O4
Exact mass: 194.05791
Instrument type: EI-MS
m/z	relative intensity
76	5
77	125
78	10
79	10
91	4
92	29
93	2
104	28
105	25
106	2
120	14
121	1
132	9
133	37
134	3
135	64
136	9
137	13
149	4
162	6
163	999
164	147
165	17
193	1
194	128
195	15
196	1
