Mass spectrum: BENZYL CHLORIDE; EI-MS
Formula: C7H7Cl
Exact mass: 126.02363
Instrument type: EI-MS
m/z	relative intensity
38	18
39	59
50	24
51	31
61	10
62	24
63	62
64	14
65	113
89	62
90	24
91	999
92	75
125	33
126	275
127	29
128	85
