Mass spectrum: ISOAMYL BENZOATE; EI-MS
Formula: C12H16O2
Exact mass: 192.11503
Instrument type: EI-MS
m/z	relative intensity
27	60
28	10
29	46
39	4
41	85
42	92
43	81
50	3
51	131
52	10
55	232
56	1
69	29
70	999
71	62
76	2
77	369
78	30
79	43
105	75
106	63
122	62
123	255
124	2
149	10
