Mass spectrum: 3-METHYL-1-(2-(6-METHYL-3-PYRIDYL)ETHYL)INDOLE; EI-MS
Formula: C17H18N2
Exact mass: 250.147
Instrument type: EI-MS
m/z	relative intensity
42	11
77	12
105	10
106	1
115	38
128	13
130	10
143	7
144	999
145	90
250	199
