Mass spectrum: 2,2,4-TRIMETHYL-1,2,3,4-TETRAHYDRO-GAMMA-CARBOLINE; EI-MS
Formula: C14H18N2
Exact mass: 214.147
Instrument type: EI-MS
m/z	relative intensity
42	10
43	70
44	10
77	1
92	7
115	13
117	10
128	1
129	15
130	20
156	128
157	999
158	137
199	234
213	18
214	158
