Mass spectrum: 1-CHLOROETHYLBENZENE; EI-MS
Formula: C8H9Cl
Exact mass: 140.03928
Instrument type: EI-MS
m/z	relative intensity
27	44
28	29
38	18
39	57
50	60
51	152
51.5	13
52	42
52.5	18
53	12
62	13
63	43
65	15
74	20
75	18
76	18
77	148
78	68
79	126
89	29
90	11
102	21
103	122
104	98
105	999
106	95
125	77
127	26
140	167
141	14
142	53
