Mass spectrum: ETHYL METHYL KETONE; EI-MS
Name: 2-BUTANONE
Formula: C4H8O
Exact mass: 72.05751
Instrument type: EI-MS
m/z	relative intensity
15	30
18	33
26	11
27	46
28	14
29	143
39	13
41	12
42	33
43	999
44	26
57	83
71	10
72	280
73	16
