Mass spectrum: O-ETHOXYPHENOL; EI-MS
Name: PYROCATECHOL MONOETHYL ETHER
Formula: C8H10O2
Exact mass: 138.06808
Instrument type: EI-MS
m/z	relative intensity
26	26
27	147
29	64
38	16
39	59
43	13
45	11
50	28
51	45
52	56
53	84
54	22
55	23
63	48
64	108
65	40
81	171
82	38
92	50
95	12
109	84
110	999
111	58
138	410
139	30
