Mass spectrum: SALICYLALDEHYDE; EI-MS
Formula: C7H6O2
Exact mass: 122.03678
Instrument type: EI-MS
m/z	relative intensity
27	18
28	11
29	41
31	10
37	30
38	80
39	250
40	7
46	15
47	40
50	58
51	3
52	10
53	55
55	18
61	3
62	35
63	51
64	30
65	31
66	80
67	16
74	21
75	2
76	210
77	27
92	15
93	17
94	62
104	130
105	10
121	93
122	999
123	83
124	10
