Mass spectrum: N-ETHYL-PARA-TOLUIDINE; EI-MS
Formula: C9H13N
Exact mass: 135.1048
Instrument type: EI-MS
m/z	relative intensity
27	36
28	46
29	17
39	48
41	19
50	14
51	40
52	24
53	17
58.5	22
59.5	41
60	40
63	23
65	84
77	84
78	24
79	34
89	23
90	17
91	179
92	52
93	36
104	16
105	17
106	39
118	56
119	40
120	999
121	95
132	12
133	18
134	75
135	384
136	40
