Mass spectrum: ACRYLAMIDE; EI-MS
Formula: C3H5NO
Exact mass: 71.03711
Instrument type: EI-MS
m/z	relative intensity
14	35
15	52
16	96
25	21
26	250
27	887
28	180
29	23
30	172
32	4
41	20
42	49
43	185
44	879
45	48
52	30
53	56
54	18
55	689
56	17
57	12
70	54
71	999
72	27
87	2
131	4
177	3
219	3
