Mass spectrum: 1,1-DIMETHYL-2-PHENYLETHYL BUTYRATE; EI-MS
Formula: C14H20O2
Exact mass: 220.14633
Instrument type: EI-MS
m/z	relative intensity
27	71
29	24
39	59
41	95
42	20
43	416
44	10
51	18
55	42
59	24
63	12
65	56
71	999
72	33
77	19
78	11
89	13
91	282
92	23
105	17
115	22
117	81
129	33
131	13
132	303
133	95
162	19
