Mass spectrum: PROPYL BENZOATE; EI-MS
Formula: C10H12O2
Exact mass: 164.08373
Instrument type: EI-MS
m/z	relative intensity
27	81
28	11
29	17
39	41
41	50
42	26
43	32
50	62
51	192
52	15
59	23
74	17
75	14
76	30
77	454
79	37
105	999
106	89
107	11
122	273
123	425
124	36
135	17
164	35
