Mass spectrum: ALPHA-FARNESENE; EI-MS
Name: (3E,6E)-3,7,11-TRIMETHYL-1,3,6,10-DODECATETRAENE
Formula: C15H24
Exact mass: 204.1878
Instrument type: EI-MS
m/z	relative intensity
27	139
29	174
41	929
43	289
53	173
55	688
67	133
69	757
79	448
80	293
91	254
93	999
105	193
107	433
119	395
123	344
133	61
135	119
147	26
148	17
161	59
162	10
189	21
204	35
