Mass spectrum: 2-PHENYLETHYL ALLYL ETHER; EI-MS
Formula: C11H14O
Exact mass: 162.10447
Instrument type: EI-MS
m/z	relative intensity
27	71
29	23
38	12
39	173
40	11
41	560
42	21
43	77
50	18
51	82
57	12
63	27
65	127
71	152
77	109
78	69
79	66
89	18
91	999
92	84
103	52
104	59
105	654
106	93
