Mass spectrum: CUMIC ALCOHOL; EI-MS
Name: 4-(1-METHYLETHYL)BENZENEMETHANOL
Formula: C10H14O
Exact mass: 150.10447
Instrument type: EI-MS
m/z	relative intensity
29	41
31	42
41	76
43	194
58	10
59	20
77	106
79	688
80	35
91	378
92	51
93	41
103	54
105	612
106	54
107	777
108	73
115	32
116	10
117	223
118	30
119	608
120	95
121	47
132	26
133	61
134	25
135	999
136	233
149	10
150	754
151	130
