Mass spectrum: 16-METHYLOCTADECANOIC ACID TRIMETHYLSILYLESTER; EI-MS
Formula: C22H46O2Si
Exact mass: 370.32671
Instrument type: EI-MS
m/z	relative intensity
43	180
55	192
57	130
69	12
73	641
75	450
76	60
81	6
83	89
95	68
97	82
98	9
117	999
118	132
129	377
130	6
131	145
132	491
133	95
145	38
146	78
201	159
355	126
370	61
371	49
