Mass spectrum: PARA-IODOBENZOIC ACID ETHYL ESTER; EI-MS
Name: ETHYL PARA-IODOBENZOATE
Formula: C9H9IO2
Exact mass: 275.96472
Instrument type: EI-MS
m/z	relative intensity
27	61
28	10
29	103
38	17
39	17
45	40
50	275
51	40
65	74
73	17
74	106
75	114
76	453
77	55
103	35
104	106
105	23
121	29
127	20
128	16
149	56
203	221
204	17
231	999
232	115
248	388
249	28
276	404
277	40
