Mass spectrum: BETA-IONONE; EI-MS
Name: (E)-4-(2,6,6-TRIMETHYL-1-CYCLOHEXEN-1-YL)-3-BUTEN-2-ONE
Formula: C13H20O
Exact mass: 192.15142
Instrument type: EI-MS
m/z	relative intensity
32	28
43	559
55	51
59	243
69	85
71	129
79	30
81	66
93	111
95	116
107	75
109	86
121	92
122	83
133	64
135	154
149	88
159	56
177	999
178	126
192	71
