Mass spectrum: TRIETHYLENE GLYCOL DIPELARGONATE; EI-MS
Formula: C24H46O6
Exact mass: 430.32944
Instrument type: EI-MS
m/z	relative intensity
53	38
54	339
55	111
56	692
57	161
58	46
59	170
60	5
67	67
68	55
69	158
70	17
71	475
72	96
73	211
74	3
75	35
81	82
83	70
84	15
85	134
86	325
87	319
88	11
89	202
95	38
96	43
97	5
98	152
99	557
100	67
101	8
102	35
110	38
111	32
112	5
113	337
114	64
115	82
127	11
129	155
135	73
138	164
141	58
142	102
143	439
144	49
155	10
156	73
157	431
158	52
171	13
184	126
185	999
186	137
187	4
193	20
199	26
201	26
202	2
214	23
215	29
216	26
229	32
