Mass spectrum: 1-ACETYL-3-(6-METHYL-3-PYRIDYL)-2-PYRAZOLINE; EI-MS
Formula: C11H13N3O
Exact mass: 203.10586
Instrument type: EI-MS
m/z	relative intensity
117	22
119	25
133	25
160	55
161	999
162	67
203	333
