Mass spectrum: ETHYL (4-METHYLTHIO)BENZOATE; EI-MS
Formula: C10H12O2S
Exact mass: 196.0558
Instrument type: EI-MS
m/z	relative intensity
29	12
44	26
45	46
57	1
77	15
79	30
91	12
105	2
108	17
119	20
122	10
123	6
124	17
125	12
136	18
149	1
151	847
152	128
153	53
168	22
169	21
170	11
181	22
182	2
196	999
197	124
198	57
