Mass spectrum: ISOPROPYL FORMATE; EI-MS
Name: 1-METHYLETHYL FORMATE
Formula: C4H8O2
Exact mass: 88.05243
Instrument type: EI-MS
m/z	relative intensity
26	21
27	222
28	17
29	178
31	45
37	11
38	27
39	150
40	31
41	353
42	426
43	367
44	22
45	999
46	20
47	69
59	59
73	207
