Mass spectrum: N-(3-(4-METHOXYPHENYL)PROPIONYL)PIPERIDIN-2-ONE; EI-MS
Formula: C15H19NO3
Exact mass: 261.13649
Instrument type: EI-MS
m/z	relative intensity
43	20
44	20
55	25
56	30
60	20
64	20
67	15
70	25
77	40
79	15
91	30
92	20
98	25
99	50
100	480
101	30
104	25
105	20
108	110
119	35
121	175
122	25
131	55
134	999
135	130
136	20
137	25
140	30
161	10
162	100
261	220
262	45
263	15
264	5
