Mass spectrum: P-ETHYLPHENOL; EI-MS
Formula: C8H10O
Exact mass: 122.07316
Instrument type: EI-MS
m/z	relative intensity
27	47
29	11
38	14
39	89
40	11
41	14
50	24
51	55
52	26
53	37
55	17
62	13
63	35
65	47
66	13
77	157
78	40
79	20
91	44
94	13
103	15
107	999
108	76
121	28
122	330
123	28
