Mass spectrum: 4-METHYL-2-HEXANONE; EI-MS
Formula: C7H14O
Exact mass: 114.10447
Instrument type: EI-MS
m/z	relative intensity
40	11
41	385
42	20
43	551
45	28
53	16
55	78
56	999
57	791
58	37
59	24
69	33
70	15
71	14
73	13
74	17
83	12
84	110
85	468
86	33
114	38
