Mass spectrum: 4-FLUOROBENZYL BENZOATE; EI-MS
Formula: C14H11FO2
Exact mass: 230.07431
Instrument type: EI-MS
m/z	relative intensity
27	35
29	29
31	10
38	2
39	70
44	34
45	27
50	14
51	338
52	30
57	59
59	2
62	18
63	48
65	14
69	2
70	18
74	43
75	84
76	4
77	530
78	59
81	19
83	17
89	27
94	15
95	108
96	3
97	91
105	999
106	90
107	7
108	110
109	820
110	65
122	9
123	88
124	18
125	99
126	4
140	28
183	10
185	62
186	1
212	51
230	341
231	52
