Mass spectrum: ENDO-NORBORNEOL; EI-MS
Name: ENDO-BICYCLO(2.2.1)HEPTAN-2-OL
Formula: C7H12O
Exact mass: 112.08882
Instrument type: EI-MS
m/z	relative intensity
43	14
44	12
45	31
54	10
55	31
56	47
57	80
58	19
66	354
67	179
68	321
69	30
70	66
71	30
79	397
80	34
81	55
82	11
83	65
84	39
93	24
94	999
95	73
97	38
108	12
111	12
112	40
