Mass spectrum: 2-ETHYLHEXANOL; EI-MS
Formula: C8H18O
Exact mass: 130.13577
Instrument type: EI-MS
m/z	relative intensity
27	154
28	21
29	225
31	120
39	101
40	13
41	399
42	72
43	358
44	15
45	16
53	22
54	17
55	247
56	218
57	999
58	43
67	12
68	14
69	101
70	210
71	37
82	22
83	192
84	72
97	12
98	81
99	12
112	34
