Mass spectrum: ALLYL ALCOHOL; EI-MS
Name: 2-PROPEN-1-OL
Formula: C3H6O
Exact mass: 58.04186
Instrument type: EI-MS
m/z	relative intensity
14	11
15	17
25	20
26	126
27	270
28	126
29	452
30	141
31	382
37	52
38	71
39	317
40	81
41	60
42	17
43	49
53	15
55	55
56	13
57	999
58	246
