Mass spectrum: CARVOMENTHOL(CIS-EQUATORIAL); EI-MS
Name: 2-METHYL-5-(1-METHYLETHYL)CYCLOHEXANOL(CIS-EQUATORIAL)
Formula: C10H20O
Exact mass: 156.15142
Instrument type: EI-MS
m/z	relative intensity
27	118
28	51
29	130
31	27
39	100
40	20
41	329
42	60
43	350
44	30
45	69
53	55
54	22
55	346
56	71
57	394
58	65
59	13
65	13
67	129
68	86
69	219
70	104
71	118
72	19
77	16
79	28
80	52
81	223
82	264
83	222
84	55
85	16
93	28
94	71
95	999
96	200
97	35
99	38
100	23
109	97
110	57
111	13
112	41
113	493
114	44
123	152
124	16
137	18
138	296
139	39
156	20
