Mass spectrum: N-ACETYL-ALANYL-ALANYL-ALANINE METHYL ESTER; EI-MS
Formula: C12H21N3O5
Exact mass: 287.14812
Instrument type: EI-MS
m/z	relative intensity
15	44
27	17
28	98
30	2
32	20
41	12
42	56
43	8
44	999
45	36
55	19
56	2
59	15
70	40
71	26
72	3
86	163
87	112
99	34
102	2
104	20
113	13
114	114
141	3
157	91
158	85
159	32
185	4
201	26
228	16
