Mass spectrum: 2-METHYLBUTYL BUTYRATE; EI-MS
Name: BUTYRIC ACID 2-METHYLBUTYL ESTER
Formula: C9H18O2
Exact mass: 158.13068
Instrument type: EI-MS
m/z	relative intensity
27	140
29	119
39	83
41	204
42	121
43	537
44	17
45	18
55	141
56	32
60	30
69	15
70	459
71	999
72	43
73	19
85	21
87	17
88	33
89	65
100	15
101	55
