Mass spectrum: DELTA-VALEROLACTAM; EI-MS
Name: 2-PIPERIDONE
Formula: C5H9NO
Exact mass: 99.06841
Instrument type: EI-MS
m/z	relative intensity
14	11
15	68
18	26
26	91
27	341
28	691
29	140
30	923
37	24
38	46
39	289
40	71
41	660
42	780
43	733
44	51
50	17
51	17
52	22
53	32
54	48
55	305
56	126
58	57
68	25
70	211
71	93
82	19
98	140
99	999
100	61
