Mass spectrum: 1,4-EPOXYMENTHANE; EI-MS
Name: 1,4-CINEOLE
Formula: C10H18O
Exact mass: 154.13577
Instrument type: EI-MS
m/z	relative intensity
28	426
29	40
41	91
43	999
55	494
58	153
69	418
71	853
81	168
83	220
93	438
96	130
107	110
111	920
121	526
125	390
136	325
139	127
154	342
155	35
