Mass spectrum: 5-BUTYLPYRIDINE-2-CARBOXYLIC ACID; EI-MS
Formula: C10H13NO2
Exact mass: 179.09463
Instrument type: EI-MS
m/z	relative intensity
50	78
51	183
52	171
53	8
54	11
55	65
56	23
57	5
62	11
63	63
64	71
65	18
66	60
75	12
76	24
77	11
78	150
79	247
80	61
91	18
92	218
93	142
94	11
104	4
105	40
106	53
107	40
108	5
118	11
119	95
120	10
121	2
134	12
135	999
136	162
179	35
