Mass spectrum: BENZIMINO ETHYL ETHER; EI-MS
Formula: C9H11NO
Exact mass: 149.08406
Instrument type: EI-MS
m/z	relative intensity
43	15
44	55
45	30
46	1
50	150
51	275
52	60
63	2
64	10
65	18
73	10
74	0
75	50
76	155
77	550
78	1
103	300
104	655
105	999
106	9
121	500
122	50
134	15
148	19
149	45
