Mass spectrum: N-DODECYL-N-METHYLPROPIONAMIDE; EI-MS
Formula: C16H33NO
Exact mass: 255.25621
Instrument type: EI-MS
m/z	relative intensity
26	3
27	40
28	24
29	19
30	25
31	2
32	13
39	2
40	5
41	130
42	70
43	13
44	999
45	44
46	2
51	0
52	1
53	8
54	6
55	8
56	26
57	196
58	94
59	1
60	1
65	2
66	1
67	1
68	6
69	27
70	29
71	2
72	13
73	3
74	1
77	0
78	1
79	2
80	1
81	0
82	2
83	7
84	10
85	1
86	15
87	52
88	56
89	0
95	1
96	1
97	3
98	1
99	2
100	330
101	224
102	2
103	1
111	1
112	4
113	0
114	84
115	25
116	2
126	0
127	1
128	62
129	18
130	0
140	2
141	2
142	33
143	0
154	1
155	1
156	22
157	0
169	1
170	28
171	4
184	2
185	4
196	1
197	1
198	4
199	8
200	3
212	10
213	0
226	400
227	64
228	5
240	1
241	1
254	6
255	58
256	1
257	2
