Mass spectrum: (Z)-3-DODECEN-1-OL; EI-MS
Formula: C12H24O
Exact mass: 184.18272
Instrument type: EI-MS
m/z	relative intensity
43	65
44	227
45	71
46	4
54	221
55	350
56	203
57	32
58	27
66	69
67	494
68	999
69	366
70	176
71	147
72	2
79	22
80	21
81	498
82	66
83	255
84	81
85	57
86	1
89	11
95	301
96	368
97	15
98	49
99	19
109	186
110	21
111	61
112	25
122	17
123	11
124	110
125	18
137	56
138	12
139	14
140	17
165	13
166	10
167	14
184	4
