Mass spectrum: METHYLHYDRAZONE ACETONE; EI-MS
Name: ACETONE METHYLHYDRAZONE
Formula: C4H10N2
Exact mass: 86.0844
Instrument type: EI-MS
m/z	relative intensity
26	35
27	117
28	369
29	15
30	999
31	113
38	24
39	8
40	57
41	178
42	539
43	9
44	78
45	35
54	108
55	8
56	456
57	130
58	30
69	7
71	339
72	16
85	57
86	87
87	65
