Mass spectrum: 5-METHYL-3-HEPTANONE; EI-MS
Formula: C8H16O
Exact mass: 128.12012
Instrument type: EI-MS
m/z	relative intensity
15	18
26	28
27	404
28	39
29	837
30	16
39	199
40	13
41	358
42	123
43	907
44	26
51	12
53	31
54	12
55	113
56	49
57	999
58	29
69	20
71	726
72	599
73	158
99	470
100	26
128	136
129	13
