Mass spectrum: 2-PENTANOL; EI-MS
Formula: C5H12O
Exact mass: 88.08882
Instrument type: EI-MS
m/z	relative intensity
19	13
27	50
28	11
29	36
31	45
39	34
41	62
42	28
43	126
44	74
45	999
46	21
55	210
56	14
57	11
59	29
70	21
71	15
73	92
