Mass spectrum: 3-BROMO-4,6-DIMETHYL-2-PYRONE; EI-MS
Formula: C7H7BrO2
Exact mass: 201.96294
Instrument type: EI-MS
m/z	relative intensity
204	610
202	650
176	950
174	999
133	380
131	440
123	380
95	430
67	950
65	170
52	200
51	510
50	230
43	890
41	180
39	210
