Mass spectrum: TRIBUTYRIN; EI-MS
Name: GLYCERYL TRIBUTYRATE
Formula: C15H26O6
Exact mass: 302.17294
Instrument type: EI-MS
m/z	relative intensity
43	63
71	999
72	45
131	22
142	12
143	68
144	38
145	31
158	11
159	13
171	10
186	23
199	10
201	122
202	14
214	19
215	47
229	26
