Mass spectrum: CIS-4,11,11-TRIMETHYL-8-METHYLENE-BICYCLO(7.2.0)UNDECA-4-ENE; EI-MS
Formula: C15H24
Exact mass: 204.1878
Instrument type: EI-MS
m/z	relative intensity
26	5
27	10
29	125
38	1
39	190
40	46
41	707
42	4
43	115
44	12
50	8
51	4
52	32
53	175
54	22
55	35
56	31
57	62
58	10
59	1
63	12
64	8
65	105
66	0
67	325
68	70
69	80
70	5
71	20
83	42
84	5
91	6
92	240
93	999
94	195
95	21
96	27
97	10
103	20
104	1
105	475
106	255
107	430
108	11
109	145
110	20
111	17
115	0
117	33
118	11
119	310
120	2
121	240
122	130
123	61
124	1
128	6
129	6
131	23
132	1
133	680
134	266
137	15
145	1
146	5
147	155
148	120
149	4
150	6
160	8
161	350
162	5
175	65
176	27
189	150
204	7
205	11
