Mass spectrum: N-(4-METHOXYPHENYLACETYL)PIPERIDIN-2-ONE; EI-MS
Formula: C14H17NO3
Exact mass: 247.12084
Instrument type: EI-MS
m/z	relative intensity
55	50
91	50
100	30
120	250
121	170
148	999
149	140
247	100
248	20
