Mass spectrum: 2'-METHOXY-6,8-DIMETHYLFLAVONOL; EI-MS
Name: 3-HYDROXY-2-(2-METHOXYPHENYL)-6,8-DIMETHYL-4H-CHROMEN-4-ONE
Formula: C18H16O4
Exact mass: 296.10486
Instrument type: EI-MS
m/z	relative intensity
39	37
51	63
63	32
65	8
76	25
77	192
78	36
89	4
91	232
92	50
93	25
103	4
104	38
105	70
118	82
119	13
120	71
121	62
122	29
123	6
133	55
135	37
145	43
146	25
147	129
148	192
149	999
150	21
151	335
152	36
165	32
181	2
249	138
250	65
265	469
266	8
267	112
281	37
296	987
297	201
