Mass spectrum: ALPHA-(4-CHLOROPHENOXY)ISOBUTYLIC ACID; EI-MS
Formula: C10H11ClO3
Exact mass: 214.03967
Instrument type: EI-MS
m/z	relative intensity
39	44
41	89
43	26
45	17
50	15
59	17
63	23
64	2
65	53
69	26
73	22
75	4
84.5	21
93	14
99	27
100	2
111	37
128	999
129	91
130	33
131	30
169	48
171	18
214	8
215	12
216	26
