Mass spectrum: 2-METHYL PENTANE; EI-MS
Name: ISOHEXANE
Formula: C6H14
Exact mass: 86.10955
Instrument type: EI-MS
m/z	relative intensity
27	121
28	27
29	107
39	102
41	346
42	473
43	999
44	25
55	49
56	39
57	109
70	44
71	203
86	13
