Mass spectrum: ETHYLENE-OXIDE; EI-MS
Name: OXIRANE
Formula: C2H4O
Exact mass: 44.02621
Instrument type: EI-MS
m/z	relative intensity
12	27
14	218
15	542
16	72
26	59
27	42
28	58
29	999
30	23
41	13
42	120
43	157
44	618
45	15
