Mass spectrum: TETRAMETHYLAMMONIUM CHLORIDE; EI-MS
Formula: C4H12ClN
Exact mass: 109.06583
Instrument type: EI-MS
m/z	relative intensity
15	999
30	130
35	160
42	5
50	300
58	600
59	430
74	50
