Mass spectrum: QUINOXALINE; EI-MS
Name: QUINAZINE
Formula: C8H6N2
Exact mass: 130.0531
Instrument type: EI-MS
m/z	relative intensity
32	109
37	97
38	125
39	69
40	18
44	309
49	48
50	645
51	266
52	159
53	33
61	18
62	25
63	41
64	55
65	118
73	13
74	105
75	208
76	974
77	108
78	18
80	17
102	73
103	810
104	64
128	10
129	72
130	999
131	103
