Mass spectrum: ORTHO-METHYLHIPPURIC ACID; EI-MS
Formula: C10H11NO3
Exact mass: 193.07389
Instrument type: EI-MS
m/z	relative intensity
51	49
56	24
62	24
63	77
64	31
65	311
66	28
73	24
74	31
77	24
89	133
90	217
91	867
92	105
105	21
117	49
118	727
119	999
120	87
148	21
149	24
175	28
193	80
