Mass spectrum: ALPHA-IONONE; EI-MS
Name: (R-(E))-4-(2,6,6-TRIMETHYL-2-CYCLOHEXEN-1-YL)-3-BUTEN-2-ONE
Formula: C13H20O
Exact mass: 192.15142
Instrument type: EI-MS
m/z	relative intensity
41	34
43	422
55	74
57	58
69	99
70	46
77	97
79	106
92	134
93	931
108	164
109	260
121	999
122	111
136	881
137	161
149	55
177	77
192	177
193	25
