Mass spectrum: METHYL 4-HYDROXY-3-METHOXYBENZOATE; EI-MS
Formula: C9H10O4
Exact mass: 182.05791
Instrument type: EI-MS
m/z	relative intensity
37	6
38	15
39	20
41	1
44	15
50	41
51	85
52	12
53	48
54	5
55	15
59	2
61	6
62	20
63	41
64	2
65	70
66	13
67	15
74	1
77	36
79	53
80	50
81	1
91	9
92	20
93	24
94	1
95	6
100	7
107	14
108	11
109	13
111	47
120	15
121	1
122	16
123	184
124	19
125	1
135	5
136	44
137	5
139	4
149	11
151	999
152	90
153	1
167	56
168	6
181	13
182	70
183	77
184	6
