Mass spectrum: 4-METHYLCYCLOHEXENE; EI-MS
Formula: C7H12
Exact mass: 96.0939
Instrument type: EI-MS
m/z	relative intensity
15	9
17	18
18	82
27	15
28	162
29	40
30	79
33	5
38	6
39	22
40	330
41	39
42	190
43	36
44	5
45	6
46	5
47	6
51	29
52	59
53	29
54	148
55	746
56	407
57	23
62	7
63	17
65	40
66	34
67	311
68	265
69	17
77	58
78	15
79	94
80	19
81	999
82	70
91	18
93	8
95	64
96	385
97	30
