Mass spectrum: 2-(4-TERT-BUTYLPHENYL)PROPANAL; EI-MS
Name: 2-(4-(1,1-DIMETHYLETHYL)PHENYL)PROPANAL
Formula: C13H18O
Exact mass: 190.13577
Instrument type: EI-MS
m/z	relative intensity
57	458
145	131
161	999
162	14
175	123
190	125
