Mass spectrum: PHENYLSUCCINIC ACID DIMETHYL ESTER; EI-MS
Formula: C12H14O4
Exact mass: 222.08921
Instrument type: EI-MS
m/z	relative intensity
50	22
51	112
52	67
53	2
59	22
63	22
66	33
67	1
75	44
76	56
77	179
78	11
79	78
89	44
90	22
91	15
93	22
94	11
96	22
102	6
103	370
104	235
105	22
115	1
116	11
117	78
118	22
121	999
122	101
131	157
132	112
133	3
139	44
140	11
141	11
142	2
147	11
149	33
155	11
162	83
163	247
164	33
167	11
190	62
191	157
192	11
