Mass spectrum: DELTA-ELEMENE; EI-MS
Formula: C15H24
Exact mass: 204.1878
Instrument type: EI-MS
m/z	relative intensity
27	86
39	110
41	311
42	1
43	211
51	25
52	15
53	12
54	10
55	127
57	8
64	1
65	61
66	20
67	76
68	2
69	40
77	206
78	23
79	20
80	55
81	73
82	5
89	1
90	8
91	225
92	101
93	86
94	155
95	32
103	10
104	1
105	161
106	30
107	150
108	5
109	15
119	75
120	22
121	999
122	116
123	13
127	8
128	1
129	11
130	8
131	5
133	1
134	15
135	21
136	740
137	1
138	5
145	10
147	16
148	2
160	13
161	300
162	55
175	1
176	5
189	31
190	5
204	6
205	10
