Mass spectrum: BUTANAL DIISOPROPYL ACETAL; EI-MS
Formula: C10H22O2
Exact mass: 174.16198
Instrument type: EI-MS
m/z	relative intensity
15	17
27	154
29	43
31	4
39	62
40	13
41	223
42	4
43	999
44	53
45	143
47	6
55	365
56	17
57	31
59	4
71	31
72	31
73	894
74	4
85	12
89	744
90	26
115	32
116	23
131	212
132	16
