Mass spectrum: TRANS-3-HEXENYL ISOBUTYRATE; EI-MS
Formula: C10H18O2
Exact mass: 170.13068
Instrument type: EI-MS
m/z	relative intensity
26	12
27	229
28	49
29	75
39	178
40	29
41	420
42	63
43	999
44	28
51	12
53	52
54	73
55	206
56	13
65	10
66	12
67	815
68	48
69	18
70	11
71	527
72	21
79	10
81	49
82	842
83	66
89	15
