Mass spectrum: L-MENTHYL 3-ETHYL-4-HYDROXYTRICYCLO(4.3.0.O(1,5))NONANE-5-CARBOXYLATE; EI-MS
Formula: C22H36O3
Exact mass: 348.26645
Instrument type: EI-MS
m/z	relative intensity
40	20
41	550
42	30
43	450
44	20
51	20
53	110
54	60
55	740
56	70
57	370
58	20
65	40
66	30
67	220
68	50
69	450
70	30
71	70
77	120
78	30
79	190
80	40
81	360
82	70
83	999
84	70
91	200
92	30
93	130
94	40
95	250
96	60
97	170
105	90
107	70
108	60
109	30
117	50
119	160
120	30
121	40
123	80
126	30
131	20
133	20
135	60
136	380
137	110
138	180
139	130
140	20
145	20
147	340
148	50
149	20
150	20
151	20
154	400
155	30
162	20
163	300
164	160
165	380
166	40
174	30
175	80
176	30
191	120
192	980
193	360
194	40
210	30
211	370
212	50
213	10
292	3
330	3
347	1
348	2
349	1
