Mass spectrum: BETA-PHENYLETHYL CINNAMATE; EI-MS
Formula: C17H16O2
Exact mass: 252.11503
Instrument type: EI-MS
m/z	relative intensity
40	20
41	60
42	10
63	10
65	40
76	30
77	145
78	50
79	15
89	10
91	50
92	10
102	50
103	270
104	999
105	90
131	305
132	10
147	20
148	10
206	20
234	10
252	20
