Mass spectrum: ALPHA-FARNESENE; EI-MS
Formula: C15H24
Exact mass: 204.1878
Instrument type: EI-MS
m/z	relative intensity
26	8
27	138
28	15
29	17
32	6
39	186
40	35
41	93
42	41
43	288
50	8
51	4
52	20
53	172
54	18
55	69
56	60
57	45
63	10
64	1
65	70
66	27
67	132
68	3
69	755
70	53
71	5
75	1
76	5
77	221
78	50
79	45
80	292
81	290
82	37
83	2
84	6
89	13
90	6
91	25
92	82
93	999
94	125
95	6
96	8
97	6
103	18
104	0
105	192
106	50
107	431
108	6
109	63
110	10
111	5
115	1
116	6
117	18
118	10
119	39
120	90
121	91
122	37
123	34
124	46
128	5
129	5
131	1
133	60
134	37
135	118
136	3
145	5
147	25
148	16
149	0
159	6
161	58
162	10
175	1
189	20
204	35
205	5
