Mass spectrum: ISOPENTYL 2-METHYLBUTYRATE; EI-MS
Formula: C10H20O2
Exact mass: 172.14633
Instrument type: EI-MS
m/z	relative intensity
27	145
29	262
39	106
41	371
42	105
43	517
44	13
45	16
53	18
54	10
55	322
56	74
57	723
58	27
69	42
70	999
71	260
72	12
74	55
85	407
86	21
87	28
102	19
103	205
104	10
115	18
129	22
144	11
