Mass spectrum: DIETHYLENE GLYCOL DIMETHYL ETHER; EI-MS
Formula: C6H14O3
Exact mass: 134.09429
Instrument type: EI-MS
m/z	relative intensity
15	14
28	14
29	131
31	14
41	10
43	32
45	160
58	51
59	999
60	34
87	19
89	19
102	19
