Mass spectrum: 3,5,5-TRIMETHYLHEXANAL; EI-MS
Formula: C9H18O
Exact mass: 142.13577
Instrument type: EI-MS
m/z	relative intensity
15	15
18	19
27	105
29	169
39	123
41	398
42	29
43	150
44	35
45	12
53	23
55	150
56	149
57	999
58	53
67	30
69	24
71	29
81	13
82	11
83	393
84	34
85	69
98	173
99	16
100	75
109	125
110	11
