Mass spectrum: DIPHENYLMETHANE; EI-MS
Formula: C13H12
Exact mass: 168.0939
Instrument type: EI-MS
m/z	relative intensity
65	146
66	15
77	37
89	81
90	78
91	481
92	30
115	43
128	29
141	25
151	15
152	171
153	182
154	21
164	11
165	250
166	96
167	797
168	999
169	133
