Mass spectrum: 2-METHYL-1,3-CYCLOPENTANEDIONE; EI-MS
Formula: C6H8O2
Exact mass: 112.05243
Instrument type: EI-MS
m/z	relative intensity
31	28
32	499
37	12
38	22
39	131
40	58
41	179
42	103
43	294
44	48
45	17
50	19
51	27
52	20
53	88
54	58
55	473
56	559
57	201
58	45
63	12
65	43
66	50
67	58
68	13
69	188
70	134
82	11
83	458
84	90
85	65
97	36
111	166
112	999
113	78
