Mass spectrum: DICHLOROBIS(TRIMETHYLSILYL)METHANE; EI-MS
Formula: C7H18Cl2Si2
Exact mass: 228.03241
Instrument type: EI-MS
m/z	relative intensity
43	105
44	26
45	129
53	11
55	20
58	27
59	260
60	18
63	30
65	54
67	19
69	11
73	999
74	83
75	36
78	27
79	68
80	13
81	25
83	27
85	473
86	40
87	16
92	12
93	476
94	30
95	125
105	239
106	20
107	82
119	12
120	10
228	16
230	12
