Mass spectrum: ADIPIC ACID DIMETHYL ESTER; EI-MS
Name: HEXANEDIOIC ACID DIMETHYL ESTER
Formula: C8H14O4
Exact mass: 174.08921
Instrument type: EI-MS
m/z	relative intensity
14	15
15	745
26	41
27	308
28	253
29	256
30	16
31	76
32	17
33	13
38	11
39	199
40	33
41	412
42	172
43	527
44	35
45	91
51	16
53	64
54	139
55	835
56	130
57	67
58	33
59	849
60	32
68	62
69	131
70	11
71	68
72	118
73	445
74	668
75	29
81	21
82	119
83	322
84	42
85	11
86	14
87	206
88	57
97	54
99	30
100	47
101	999
102	58
110	48
111	787
112	58
113	25
114	919
115	252
116	21
142	262
143	821
144	69
