Mass spectrum: 4-ETHYLPYRIDINE; EI-MS
Formula: C7H9N
Exact mass: 107.0735
Instrument type: EI-MS
m/z	relative intensity
29	30
32	24
37	41
38	9
39	281
40	38
41	50
49	4
50	163
51	281
52	155
53	9
54	81
61	28
62	33
63	6
64	39
65	268
66	42
67	4
74	23
75	10
76	21
77	9
78	89
79	230
80	81
91	3
92	471
93	36
104	20
105	3
106	840
107	999
108	105
