Mass spectrum: 1-OXO-1H-PYRIMIDO(1,2-A)QUINOLINE-2-ACETICACID ETHYL ESTER; EI-MS
Formula: C16H14N2O3
Exact mass: 282.10044
Instrument type: EI-MS
m/z	relative intensity
55	31
64	20
77	26
101	4
128	271
129	43
155	20
180	2
181	74
209	999
210	17
236	3
237	49
282	371
283	63
