Mass spectrum: PENTADECANOIC ACID TRIMETHYLSILYL ESTER; EI-MS
Formula: C18H38O2Si
Exact mass: 314.26411
Instrument type: EI-MS
m/z	relative intensity
43	999
45	113
47	82
55	27
57	136
69	129
73	971
74	7
75	847
77	180
117	744
129	27
131	126
132	291
145	206
298	13
299	224
