Mass spectrum: 6-METHOXYMETHYL-2,3,4-TRIMETHOXYBENZYL METHYL SULFIDE; EI-MS
Name: 3,4,5-TRIMETHOXY-2-METHYLTHIOMETHYLBENZYLMETHYL ETHER
Formula: C13H20O4S
Exact mass: 272.10823
Instrument type: EI-MS
m/z	relative intensity
53	25
54	24
58	22
63	3
65	34
77	37
78	21
79	3
91	34
105	34
107	37
120	3
121	23
135	27
136	20
137	3
149	41
150	43
151	51
165	4
167	28
179	70
180	82
181	6
194	56
195	999
196	120
209	7
210	35
224	97
225	327
226	51
