Mass spectrum: 2,3,5-TRIMETHYL-1-(2-(6-METHYL-3-PYRIDYL)ETHYL)INDOLE; EI-MS
Formula: C19H22N2
Exact mass: 278.1783
Instrument type: EI-MS
m/z	relative intensity
42	10
43	12
57	13
91	1
105	11
106	20
128	10
130	1
142	11
143	10
156	22
157	5
158	11
170	12
171	21
172	999
173	110
278	246
