Mass spectrum: 3-ETHYL-2,4-PENTANEDIONE; EI-MS
Formula: C7H12O2
Exact mass: 128.08373
Instrument type: EI-MS
m/z	relative intensity
15	59
27	41
29	21
31	11
39	44
41	47
42	23
43	999
44	23
45	15
53	12
55	21
58	37
67	38
69	14
71	533
72	25
85	58
86	327
87	23
100	46
113	68
128	34
129	14
