Mass spectrum: 4-AMINOBENZONITRILE; EI-MS
Name: 4-CYANOANILINE
Formula: C7H6N2
Exact mass: 118.0531
Instrument type: EI-MS
m/z	relative intensity
28	63
37	13
38	18
39	36
40	18
41	41
50	14
51	19
52	43
62	21
63	83
64	110
65	42
66	14
67	13
75	13
76	12
78	12
90	82
91	273
92	24
117	48
118	999
119	97
