Mass spectrum: 1,1-DICHLORO-2,2-BIS(PARA-CHLOROPHENYL)ETHENE; EI-MS
Name: TETRACHLORODIPHENYLETHENE
Formula: C14H8Cl4
Exact mass: 315.93801
Instrument type: EI-MS
m/z	relative intensity
36	7
38	8
39	19
40	1
42	5
44	7
49	5
50	6
51	52
61	16
62	28
63	3
67	5
69	6
71	5
73	3
74	86
75	130
76	18
77	1
81	11
82	11
84	14
85	3
86	35
87	120
88	79
89	1
92	30
93	23
94	7
96	1
97	20
98	45
99	77
100	2
101	10
104	21
105	263
106	8
107	16
108	13
109	24
110	5
111	49
112	8
113	16
121	1
122	116
123	181
124	80
125	3
126	14
127	17
128	15
133	1
134	13
135	31
136	18
137	3
138	12
140	122
141	118
142	4
143	6
146	6
147	14
148	1
149	33
150	46
151	11
158	1
159	8
160	29
161	11
162	1
163	27
164	10
170	45
171	1
172	33
173	21
174	83
175	11
176	341
177	52
178	7
180	1
184	17
185	12
186	13
191	1
197	5
199	17
201	5
207	1
208	7
209	14
210	160
211	5
212	53
213	15
216	5
217	1
220	9
222	4
233	29
234	1
235	20
244	17
245	45
246	999
247	186
248	645
249	110
250	12
251	19
252	5
280	57
281	10
282	75
283	92
284	33
285	3
286	5
314	6
315	15
316	70
317	125
318	916
319	143
320	43
321	67
322	94
323	13
