Mass spectrum: 2-OXOPENTANOIC ACID METHYL ESTER; EI-MS
Formula: C6H10O3
Exact mass: 130.06299
Instrument type: EI-MS
m/z	relative intensity
38	32
40	333
41	56
43	999
44	23
55	65
69	19
70	4
71	875
72	41
130	84
