Mass spectrum: 1,3-DIMETHYL-4-PHENYL-4-PIPERIDINOL PROPANOATE; EI-MS
Formula: C16H23NO2
Exact mass: 261.17288
Instrument type: EI-MS
m/z	relative intensity
35	3
36	23
37	16
38	2
39	100
40	25
41	161
42	65
43	279
44	340
45	93
46	1
49	1
50	40
51	109
52	4
53	33
54	28
55	80
56	2
57	281
58	180
59	16
62	2
63	41
64	20
65	88
66	2
67	41
68	49
69	35
70	14
71	49
72	21
73	91
74	14
75	40
76	39
77	198
78	7
79	49
80	19
81	22
82	7
83	35
84	544
85	41
86	3
87	12
88	11
89	49
90	1
91	328
92	49
93	11
94	2
95	111
96	22
97	65
98	1
99	8
100	11
101	17
102	7
103	70
104	38
105	137
106	2
107	2
108	40
109	17
110	11
111	23
113	11
114	12
115	24
116	60
117	99
118	23
119	0
120	1
126	17
127	60
128	18
129	484
130	89
131	52
132	2
133	15
134	8
138	2
139	3
140	21
141	60
142	28
143	9
144	399
145	122
146	22
147	1
150	1
151	2
152	9
153	2
154	31
155	28
156	21
157	4
158	71
159	19
160	11
165	1
166	17
167	49
168	69
169	8
170	81
171	37
172	999
173	12
174	27
175	11
176	3
182	1
183	17
184	31
185	16
186	1
187	663
188	191
189	44
190	1
191	8
200	1
201	8
202	1
203	11
204	17
205	11
206	1
249	1
250	7
252	7
259	0
260	21
261	64
262	17
263	0
125	1
