Mass spectrum: PARA FLUORO ISOBUTYLBENZOATE; EI-MS
Formula: C11H13FO2
Exact mass: 196.08996
Instrument type: EI-MS
m/z	relative intensity
27	60
29	71
39	70
41	146
43	28
50	37
51	22
55	21
56	378
57	34
68	11
69	26
74	17
75	198
76	14
94	27
95	436
96	26
97	22
123	999
124	70
140	12
141	206
142	13
