Mass spectrum: 3-NITROANISOL; EI-MS
Formula: C7H7NO3
Exact mass: 153.04259
Instrument type: EI-MS
m/z	relative intensity
15	5
37	13
38	54
39	27
41	19
46	12
50	103
51	48
52	31
53	26
61	19
62	66
63	266
64	251
65	37
66	10
67	7
73	11
74	56
75	51
76	75
77	550
78	50
79	33
80	23
92	601
93	49
94	6
95	173
96	12
106	9
107	420
108	45
123	23
137	11
153	999
154	83
155	9
