Mass spectrum: 1-(2-(3-CYCLOHEXENYL)ETHYL)SILATRANE; EI-MS
Formula: C14H25NO3Si
Exact mass: 283.16037
Instrument type: EI-MS
m/z	relative intensity
56	11
63	10
88	10
89	12
105	10
106	13
130	28
172	12
174	999
175	127
176	52
283	5
