Mass spectrum: ISOPROPYL PROPIONATE; EI-MS
Formula: C6H12O2
Exact mass: 116.08373
Instrument type: EI-MS
m/z	relative intensity
15	24
26	30
27	195
28	44
29	287
31	14
39	72
41	171
42	66
43	609
44	24
45	37
55	11
56	11
57	999
58	31
59	100
74	38
75	277
101	98
