Mass spectrum: CIS-9-HEXADECENOIC ACID METHYL ESTER; EI-MS
Formula: C17H32O2
Exact mass: 268.24023
Instrument type: EI-MS
m/z	relative intensity
42	14
43	18
53	73
54	20
55	999
56	189
57	177
65	2
66	14
67	340
68	204
69	62
70	142
71	59
73	26
74	44
75	75
77	22
78	12
79	9
80	53
81	293
82	208
83	43
84	348
85	75
87	381
88	3
91	24
93	48
94	61
95	19
96	385
97	355
98	338
99	4
100	16
101	67
102	14
105	1
106	12
107	32
108	32
109	12
110	189
111	191
112	73
113	3
114	28
115	48
119	42
120	2
121	44
122	30
123	132
124	10
125	85
126	30
127	34
128	4
129	32
133	28
134	32
135	4
136	28
137	77
138	91
139	5
141	69
143	24
147	18
148	3
149	24
150	18
151	51
152	15
153	40
154	12
155	20
161	2
165	36
166	26
172	12
175	2
179	16
180	16
192	51
193	4
194	124
195	24
208	16
218	2
236	159
237	116
238	18
268	38
