Mass spectrum: VALEROPHENONE; EI-MS
Formula: C11H14O
Exact mass: 162.10447
Instrument type: EI-MS
m/z	relative intensity
27	72
29	63
39	38
41	34
50	47
51	182
52	13
55	22
57	11
74	11
76	20
77	521
78	75
91	15
105	999
106	77
120	430
121	31
133	22
162	55
