Mass spectrum: 3,4-METHYLENEDIOXYBENZYL PROPIONATE; EI-MS
Formula: C11H12O4
Exact mass: 208.07356
Instrument type: EI-MS
m/z	relative intensity
27	12
29	89
39	28
50	16
51	100
57	100
63	40
65	72
67	22
76	65
77	143
78	15
79	12
91	12
93	74
104	62
105	68
121	52
122	82
123	50
134	380
135	999
136	100
149	80
150	142
151	65
152	665
153	58
180	18
208	600
209	67
