Mass spectrum: CYCLOOCTENE; EI-MS
Formula: C8H14
Exact mass: 110.10955
Instrument type: EI-MS
m/z	relative intensity
27	63
28	12
29	41
39	165
40	32
41	436
42	45
43	27
51	26
52	15
53	100
54	730
55	205
56	96
65	37
66	50
67	999
68	387
69	175
70	27
77	34
79	62
80	30
81	509
82	656
83	57
91	14
95	195
109	11
110	436
111	39
112	15
