Mass spectrum: TRIDECANE; EI-MS
Formula: C13H28
Exact mass: 184.2191
Instrument type: EI-MS
m/z	relative intensity
40	41
41	429
42	125
43	999
44	42
53	15
54	15
55	14
56	142
57	949
58	42
67	1
68	8
69	49
70	87
71	46
72	25
82	8
83	23
84	5
85	231
86	15
97	11
98	3
99	40
112	19
113	19
126	1
127	15
141	9
155	4
184	1
185	2
