Mass spectrum: 2-PHENYLETHANOL; EI-MS
Name: BETA-PHENYLETHYL ALCOHOL
Formula: C8H10O
Exact mass: 122.07316
Instrument type: EI-MS
m/z	relative intensity
27	18
28	26
31	49
39	86
41	26
50	23
51	63
52	14
63	35
65	174
77	41
78	37
89	18
91	999
92	619
93	41
103	18
104	13
122	217
123	17
