Mass spectrum: PARA-METHYLPHENETOLE; EI-MS
Formula: C9H12O
Exact mass: 136.08882
Instrument type: EI-MS
m/z	relative intensity
26	65
27	281
28	30
29	1
39	116
40	12
42	21
44	1
50	60
51	125
52	79
53	8
55	10
62	20
63	52
64	1
65	82
66	10
75	8
76	1
77	231
78	85
79	142
80	8
81	13
89	15
90	85
91	8
92	19
93	17
106	55
107	93
108	999
109	71
121	12
136	48
137	40
