Mass spectrum: 1-METHYLPENTYL ISOBUTYRATE; EI-MS
Name: 2-HEXYL ISOBUTYRATE
Formula: C10H20O2
Exact mass: 172.14633
Instrument type: EI-MS
m/z	relative intensity
27	149
28	29
29	106
39	79
40	14
41	249
42	91
43	999
44	46
45	84
55	96
56	80
57	82
69	53
71	745
72	37
84	160
85	287
86	25
88	13
89	117
101	14
115	122
