Mass spectrum: HEPTYL HEXANOATE; EI-MS
Formula: C13H26O2
Exact mass: 214.19328
Instrument type: EI-MS
m/z	relative intensity
26	14
27	244
29	410
30	10
31	15
39	148
41	698
42	278
43	999
44	23
45	25
53	33
54	44
55	486
56	677
57	680
58	31
59	12
60	148
61	261
67	21
68	96
69	359
70	604
71	322
72	17
73	151
74	15
75	16
81	16
83	72
84	12
87	83
89	34
97	36
98	625
99	734
100	42
101	16
113	11
115	14
116	64
117	972
118	52
143	18
