Mass spectrum: N,N-DIMETHYLBENZYLAMINE; EI-MS
Name: BENZYLDIMETHYLAMINE
Formula: C9H13N
Exact mass: 135.1048
Instrument type: EI-MS
m/z	relative intensity
15	49
27	31
28	27
29	23
30	35
31	71
39	72
40	10
41	32
42	219
43	41
44	105
45	33
46	14
50	22
51	57
52	13
57	34
58	999
59	39
62	13
63	50
64	14
65	149
66	11
77	46
78	20
89	45
90	19
91	578
92	102
118	42
132	23
134	418
135	776
136	104
