Mass spectrum: NAPHTHALENE; EI-MS
Formula: C10H8
Exact mass: 128.0626
Instrument type: EI-MS
m/z	relative intensity
37	8
38	21
39	18
49	5
50	63
51	107
52	18
61	12
62	27
63	75
64	63
65	5
67	3
68	2
73	6
74	52
75	57
76	38
77	47
78	33
79	3
87	18
88	3
89	8
98	14
99	6
100	7
101	26
102	93
103	8
121	9
122	2
125	4
126	60
127	106
128	999
129	109
130	6
