Mass spectrum: PROPYLHYDRAZONE ISOBUTYRALDEHYDE; EI-MS
Name: ISOBUTYRALDEHYDE PROPYLHYDRAZONE
Formula: C7H16N2
Exact mass: 128.13135
Instrument type: EI-MS
m/z	relative intensity
28	270
29	200
30	846
39	15
40	23
41	365
42	139
43	999
44	108
45	18
54	46
55	5
56	108
57	135
58	169
68	2
69	33
70	73
71	54
72	3
83	22
84	14
85	162
86	2
97	16
99	106
100	7
113	1
128	385
129	54
