Mass spectrum: 2-HEPTAFLUOROPROPYL-5-TRIFLUOROMETHYLBENZMIDAZOLE; EI-MS
Formula: C11H4F10N2
Exact mass: 354.02148
Instrument type: EI-MS
m/z	relative intensity
44	257
51	34
67	35
69	189
100	182
119	226
131	404
150	16
163	42
167	26
169	166
170	48
197	20
208	56
215	77
216	21
234	13
235	999
236	107
266	11
286	15
335	130
336	17
354	550
355	71
