Mass spectrum: 1-METHYLNAPHTHALENE; EI-MS
Formula: C11H10
Exact mass: 142.07825
Instrument type: EI-MS
m/z	relative intensity
27	16
39	41
50	27
51	34
57.5	56
58	13
62	25
63	57
69	19
69.5	31
70	36
70.5	41
71	68
74	23
75	21
77	14
86	12
87	17
89	31
91	14
113	15
115	206
116	22
139	84
140	47
141	694
142	999
143	115
