Mass spectrum: PARA-TERT-AMYLCYCLOHEXANOL; EI-MS
Formula: C11H22O
Exact mass: 170.16707
Instrument type: EI-MS
m/z	relative intensity
27	100
28	12
29	164
31	19
39	80
40	11
41	264
42	42
43	530
44	58
53	44
54	69
55	273
56	31
57	72
67	352
68	24
69	81
70	999
71	680
72	31
77	13
79	37
80	145
81	318
82	171
83	82
95	61
98	29
99	77
123	262
124	22
137	28
141	24
