Mass spectrum: 1-PROPENE-1,2,3-TRICARBOXYLIC ACID TRIMETHYL ESTER; EI-MS
Name: TRIMETHYL ACONITATE
Formula: C9H12O6
Exact mass: 216.06339
Instrument type: EI-MS
m/z	relative intensity
15	580
31	397
39	293
45	104
53	126
59	631
68	140
75	126
81	59
83	45
98	192
101	51
112	27
113	205
125	360
126	120
139	22
141	143
152	999
155	562
173	12
185	985
186	535
216	18
