Mass spectrum: ACETONE; EI-MS
Formula: C3H6O
Exact mass: 58.04186
Instrument type: EI-MS
m/z	relative intensity
14	39
15	207
26	52
27	79
29	29
37	15
38	17
39	43
41	14
42	77
43	999
44	23
58	246
