Mass spectrum: 1,3-BIS(TETRAHYDRO-2-FURANYL)-5-FLUOROURACIL; EI-MS
Formula: C12H15FN2O4
Exact mass: 270.10159
Instrument type: EI-MS
m/z	relative intensity
41	160
42	90
43	300
44	0
59	60
60	30
69	90
70	2
71	999
87	60
88	30
114	1
115	40
130	40
131	180
132	0
156	40
157	20
170	30
171	0
172	30
199	140
200	120
201	2
227	110
228	50
270	210
271	60
