Mass spectrum: 2-(2-ETHOXYETHOXY)ETHANOL; EI-MS
Name: CARBITOL
Formula: C6H14O3
Exact mass: 134.09429
Instrument type: EI-MS
m/z	relative intensity
26	13
27	105
28	70
29	153
31	374
33	14
39	16
41	101
42	66
43	999
44	26
45	10
58	11
59	376
60	92
61	20
62	19
72	265
73	141
75	73
89	11
101	14
103	31
104	55
