Mass spectrum: 3-AMINOPROPYL METHYL ETHER; EI-MS
Formula: C4H11NO
Exact mass: 89.08406
Instrument type: EI-MS
m/z	relative intensity
28	25
29	22
30	999
31	3
33	18
41	19
42	16
44	4
45	112
56	122
57	101
59	3
71	19
72	240
73	13
74	9
89	12
