Mass spectrum: P-METHOXYACETOPHENONE; EI-MS
Formula: C9H10O2
Exact mass: 150.06808
Instrument type: EI-MS
m/z	relative intensity
15	42
27	13
38	34
39	39
43	156
50	51
51	51
52	16
53	22
61	12
62	31
63	95
64	118
65	24
74	24
75	20
76	31
77	323
78	41
79	21
91	13
92	218
93	14
107	96
108	10
135	999
136	71
150	340
151	25
