Mass spectrum: GAMMA-BUTYROLACTONE; EI-MS
Name: DIHYDRO-2(3H)-FURANONE
Formula: C4H6O2
Exact mass: 86.03678
Instrument type: EI-MS
m/z	relative intensity
40	164
42	999
43	65
44	31
53	14
55	91
56	316
57	60
85	142
86	363
87	18
