Mass spectrum: 1,2-DIIODOPROPANE; EI-MS
Formula: C3H6I2
Exact mass: 295.85589
Instrument type: EI-MS
m/z	relative intensity
41	709
42	192
127	160
128	207
141	25
169	999
170	39
254	292
296	30
