Mass spectrum: 1-OXO-1H-PYRIMIDO(1,2-A)QUINOLINE-2-CARBOXYLIC ACID ETHYL ESTER; EI-MS
Formula: C15H12N2O3
Exact mass: 268.08479
Instrument type: EI-MS
m/z	relative intensity
64	100
69	300
77	90
101	16
128	860
129	230
140	120
155	7
168	630
169	150
194	44
195	23
196	350
197	53
212	100
223	35
224	53
240	120
241	110
268	999
269	180
