Mass spectrum: OCTYL OCTANOATE; EI-MS
Formula: C16H32O2
Exact mass: 256.24023
Instrument type: EI-MS
m/z	relative intensity
27	188
29	354
31	12
39	111
41	717
42	267
43	813
44	17
45	17
53	29
54	41
55	532
56	416
57	999
58	36
59	18
60	137
61	287
67	53
68	98
69	298
70	482
71	306
72	15
73	153
74	12
81	21
82	138
83	409
84	417
85	45
87	49
89	37
97	58
98	34
101	82
103	17
109	19
111	15
112	536
113	43
115	30
116	22
125	13
127	392
128	29
129	12
144	69
145	837
146	58
157	18
