Mass spectrum: 2-METHYL-5-UNDECYLPYRIDINE; EI-MS
Formula: C17H29N
Exact mass: 247.23
Instrument type: EI-MS
m/z	relative intensity
39	93
40	25
41	296
42	5
43	163
51	43
53	66
54	2
55	148
56	35
57	69
65	6
66	31
67	55
69	71
77	25
78	61
79	156
80	10
81	3
83	28
91	66
92	41
93	5
94	32
95	40
97	40
105	6
106	689
107	936
108	99
117	5
118	35
119	110
120	999
121	31
122	18
132	70
133	28
134	21
135	50
146	49
147	27
148	10
149	45
156	35
160	47
161	2
162	136
175	121
176	49
188	5
189	12
190	100
191	31
204	10
205	41
216	142
217	10
218	11
230	31
232	83
244	41
245	7
246	113
247	125
248	41
