Mass spectrum: 2,2-DIMETHYLBUTANE; EI-MS
Formula: C6H14
Exact mass: 86.10955
Instrument type: EI-MS
m/z	relative intensity
15	16
26	13
27	190
28	26
29	334
38	10
39	155
40	19
41	479
42	32
43	939
44	31
50	10
51	15
53	29
55	120
56	349
57	999
58	46
70	38
71	810
72	46
