Mass spectrum: 1,2,4,5-CYCLOHEXANETETROL; EI-MS
Formula: C6H12O4
Exact mass: 148.07356
Instrument type: EI-MS
m/z	relative intensity
55	461
57	999
60	726
73	100
74	620
75	610
86	460
130	40
148	25
