Mass spectrum: ORTHO-METHYLPHENOL; EI-MS
Formula: C7H8O
Exact mass: 108.05751
Instrument type: EI-MS
m/z	relative intensity
29	130
31	15
32	11
36	3
37	130
38	191
39	422
40	6
41	31
42	20
43	38
48	2
49	50
50	242
51	322
52	14
53	226
54	65
55	53
61	4
62	62
63	139
64	79
65	7
66	62
67	13
68	39
73	2
74	41
75	45
76	19
77	46
78	140
79	420
80	188
81	4
89	142
90	280
91	88
107	89
108	999
109	67
