Mass spectrum: 10-ISOPROPYL-3,3-DIMETHYL-11-PHENYL-2,3,4,5,10,11-HEXAHYDRO-1H-DIBENZO(B,E)(1,4)-DIAZEPIN-1-ONE; EI-MS
Formula: C24H28N2O
Exact mass: 360.22016
Instrument type: EI-MS
m/z	relative intensity
39	56
40	23
41	129
42	35
43	134
44	25
51	40
53	24
55	91
65	80
76	25
77	132
78	36
83	164
89	31
90	27
91	134
92	85
93	32
102	56
103	44
104	34
105	24
115	76
116	46
117	39
118	35
119	102
127	48
128	74
129	92
130	66
131	65
132	84
133	144
134	21
141	26
142	33
143	46
144	29
145	24
152	26
155	35
156	25
157	37
158	121
159	64
165	34
167	22
168	22
169	33
172	26
173	32
180	23
181	25
182	22
183	33
184	27
185	53
194	22
195	42
197	23
199	22
204	21
206	20
215	63
216	22
217	39
218	59
219	99
220	50
226	170
227	49
231	62
232	61
233	65
234	26
239	61
241	155
242	34
245	56
246	102
247	29
259	26
261	178
262	41
267	47
269	33
273	21
275	45
276	74
283	312
284	74
287	24
289	49
301	30
302	999
303	371
304	94
315	55
317	589
318	157
319	21
330	45
345	330
346	92
359	112
360	638
361	187
362	29
