Mass spectrum: 4-METHYL-2-PROPYLTHIAZOLE; EI-MS
Formula: C7H11NS
Exact mass: 141.06122
Instrument type: EI-MS
m/z	relative intensity
26	198
27	19
39	96
40	489
41	364
42	401
52	10
53	39
54	37
66	73
67	999
68	161
80	18
81	25
93	84
107	40
108	718
109	192
141	10
