Mass spectrum: GLYCIDYL PHENYL ETHER; EI-MS
Name: 2-PHEN0XYMETHYL-OXIRANE
Formula: C9H10O2
Exact mass: 150.06808
Instrument type: EI-MS
m/z	relative intensity
29	55
31	46
55	12
57	154
65	63
66	90
77	229
78	22
79	80
91	99
92	22
93	11
94	749
95	50
107	227
108	18
119	40
120	122
121	19
150	999
151	99
152	9
