Mass spectrum: META-(TRIMETHYLSILYL)OXY-PHENYLACETIC ACIDTRIMETHYLSILYL ESTER; EI-MS
Formula: C14H24O3Si2
Exact mass: 296.1264
Instrument type: EI-MS
m/z	relative intensity
44	146
45	275
47	68
59	6
61	60
73	517
74	362
75	85
76	60
77	379
89	68
90	6
105	129
117	60
133	146
135	6
147	999
148	275
149	232
163	6
164	974
165	146
177	60
179	9
191	94
237	60
252	362
253	9
281	465
282	112
283	60
296	51
297	129
298	60
