Mass spectrum: BUTYROPHENONE; EI-MS
Name: PHENYL N-PROPYL KETONE
Formula: C10H12O
Exact mass: 148.08882
Instrument type: EI-MS
m/z	relative intensity
28	125
39	40
41	77
43	243
65	32
76	28
77	514
79	40
105	999
106	64
148	98
