Mass spectrum: 1-ISOPROPYL-4-METHYL-2-TRIMETHYLSILOXYCYCLOHEXANE; EI-MS
Name: MENTHYLOXYTRIMETHYLSILANE
Formula: C13H28OSi
Exact mass: 228.19094
Instrument type: EI-MS
m/z	relative intensity
43	37
44	18
55	17
73	102
75	169
81	66
82	33
95	54
123	40
137	52
138	200
139	25
143	999
144	136
145	52
157	49
171	54
205	68
213	179
214	37
220	24
228	149
229	34
