Mass spectrum: (E)-6-PHENYL-5-HEXEN-1-OL; EI-MS
Formula: C12H16O
Exact mass: 176.12012
Instrument type: EI-MS
m/z	relative intensity
40	750
43	193
44	210
55	4
56	25
57	33
58	67
91	10
92	42
104	109
105	59
106	3
115	42
117	570
118	999
119	10
131	286
146	76
174	202
175	8
