Mass spectrum: N-ACETYL-L-GLUTAMIC ACID DIMETHYL ESTER; EI-MS
Formula: C9H15NO5
Exact mass: 217.09502
Instrument type: EI-MS
m/z	relative intensity
15	172
29	75
31	62
41	19
43	652
56	401
57	131
70	3
71	30
84	999
88	167
98	20
99	64
114	44
116	602
126	15
127	20
144	203
145	26
149	3
158	370
167	11
174	39
185	4
217	5
