Mass spectrum: DIISOPROPYL ETHER; EI-MS
Formula: C6H14O
Exact mass: 102.10447
Instrument type: EI-MS
m/z	relative intensity
15	49
27	108
28	11
29	22
31	41
39	70
40	12
41	149
42	33
43	396
44	17
45	999
46	25
59	99
69	38
87	195
88	12
102	23
