Mass spectrum: ETHYL 2-NAPHTHALENECARBOXYLATE; EI-MS
Formula: C13H12O2
Exact mass: 200.08373
Instrument type: EI-MS
m/z	relative intensity
29	16
77	10
126	17
127	45
128	100
129	10
155	929
156	16
157	14
172	258
173	35
185	6
200	999
201	147
202	14
