Mass spectrum: ISOPROPYL FORMATE; EI-MS
Name: FORMIC ACID ISOPROPYL ESTER
Formula: C4H8O2
Exact mass: 88.05243
Instrument type: EI-MS
m/z	relative intensity
15	50
19	50
27	208
28	26
29	96
31	44
39	95
40	26
41	303
42	483
43	402
44	30
45	999
46	26
47	70
59	51
73	204
