Mass spectrum: 4-TOLYL ISOCYANATE; EI-MS
Formula: C8H7NO
Exact mass: 133.05276
Instrument type: EI-MS
m/z	relative intensity
26	13
27	21
38	17
39	43
50	43
51	65
52	48
62	14
63	35
64	17
65	28
75	17
76	28
77	97
78	119
79	21
90	14
91	105
103	19
104	385
105	207
106	20
132	518
133	999
134	90
