Mass spectrum: ALLYL ALCOHOL; EI-MS
Name: 2-PROPEN-1-OL
Formula: C3H6O
Exact mass: 58.04186
Instrument type: EI-MS
m/z	relative intensity
15	27
18	42
26	99
27	269
28	142
29	477
30	193
31	417
37	31
38	47
39	266
40	88
41	68
43	44
55	51
56	12
57	999
58	201
59	12
