Mass spectrum: 7-METHOXYISOFLAVENE; EI-MS
Name: 7-METHOXY-3-PHENYL-2H-CHROMENE
Formula: C16H14O2
Exact mass: 238.09938
Instrument type: EI-MS
m/z	relative intensity
161	103
162	10
207	7
210	1
223	10
237	240
238	999
239	15
240	20
