Mass spectrum: ETHYL HEPTANOATE; EI-MS
Formula: C9H18O2
Exact mass: 158.13068
Instrument type: EI-MS
m/z	relative intensity
15	17
26	24
27	332
29	549
30	14
31	19
39	143
41	403
42	125
43	615
44	18
45	159
53	23
54	12
55	216
56	74
57	92
59	15
60	370
61	238
67	11
68	18
69	84
70	183
71	15
73	241
74	38
83	41
84	58
85	99
87	65
88	999
89	63
95	11
101	275
102	21
111	11
113	320
114	18
115	122
129	19
131	19
158	10
