Mass spectrum: 1,3-BENZODIOXOLE; EI-MS
Formula: C7H6O2
Exact mass: 122.03678
Instrument type: EI-MS
m/z	relative intensity
14	31
18	126
26	40
27	17
28	136
30	14
39	91
40	32
41	19
43	2
49	16
50	57
51	52
52	4
54	20
57	13
61	68
62	9
63	360
64	213
65	117
66	11
77	19
79	25
92	23
93	1
121	999
122	680
123	61
