Mass spectrum: CIS-MENTHANE; EI-MS
Formula: C10H20
Exact mass: 140.1565
Instrument type: EI-MS
m/z	relative intensity
27	139
28	179
29	141
39	13
40	21
41	359
42	50
43	12
51	13
53	59
54	58
55	999
56	77
57	39
65	14
67	7
68	40
69	177
70	22
77	1
79	19
81	224
82	26
83	6
95	16
140	161
141	18
