Mass spectrum: 2-PHENY1PYRROLO(2,1-B)BENZOTHIAZOL; EI-MS
Formula: C16H11NS
Exact mass: 249.06122
Instrument type: EI-MS
m/z	relative intensity
115	15
204	12
216	14
217	2
247	25
248	80
249	999
250	19
251	60
