Mass spectrum: 4,4'-DIHYDROXY DIPHENYL ETHER; EI-MS
Formula: C12H10O3
Exact mass: 202.06299
Instrument type: EI-MS
m/z	relative intensity
27	44
39	157
43	30
53	74
55	43
63	44
64	22
65	126
66	21
69	36
78	23
81	95
93	29
94	169
101	35
109	167
110	71
117	21
127	22
131	33
145	47
147	24
173	60
201	26
202	999
203	135
