Mass spectrum: 3,4-DIHYDRO-2H-PYRAN; EI-MS
Formula: C5H8O
Exact mass: 84.05751
Instrument type: EI-MS
m/z	relative intensity
42	36
43	23
44	17
50	33
51	41
52	19
53	127
54	301
55	999
56	263
57	118
65	15
66	17
69	106
81	10
83	323
84	696
85	39
