Mass spectrum: 2-METHYLTETRAHYDROFURAN; EI-MS
Formula: C5H10O
Exact mass: 86.07316
Instrument type: EI-MS
m/z	relative intensity
14	15
15	74
26	56
27	33
28	106
29	145
31	30
37	1
38	30
39	239
40	81
41	68
42	523
43	588
44	27
45	25
50	20
51	19
53	27
54	1
55	69
56	232
57	30
58	2
67	13
70	17
71	999
72	5
85	49
86	198
87	17
