Mass spectrum: 5-ETHYL-2-METHYLPYRIDINE; EI-MS
Formula: C8H11N
Exact mass: 121.08915
Instrument type: EI-MS
m/z	relative intensity
27	84
28	10
29	13
39	146
40	12
41	47
51	96
52	31
53	81
63	18
64	20
65	114
66	48
77	311
78	74
79	333
80	20
91	57
92	33
93	90
105	13
106	999
107	99
120	225
121	541
122	47
