Mass spectrum: ISOPROPYL 4-CYANOBENZOATE (D6); EI-MS
Name: (2,2,2,3,3,3-2H6)ISOPROPYL 4-CYANOBENZOATE
Formula: C11H11NO2
Exact mass: 189.07898
Instrument type: EI-MS
m/z	relative intensity
40	34
42	16
44	19
45	81
46	92
47	161
48	19
49	304
50	54
51	71
65	315
74	15
75	98
76	59
102	324
103	55
104	13
106	8
130	999
131	142
132	8
148	32
149	19
150	381
151	32
177	45
195	87
196	7
