Mass spectrum: MANDELIC ACID; EI-MS
Formula: C8H8O3
Exact mass: 152.04734
Instrument type: EI-MS
m/z	relative intensity
27	55
28	27
29	60
38	21
39	68
45	24
50	75
51	19
52	45
53	37
53.5	10
62	2
63	34
74	17
75	20
76	1
77	468
78	74
79	659
80	4
89	25
90	42
91	19
105	6
106	17
107	999
108	85
109	1
152	80
