Mass spectrum: ETHYL VINYL ETHER; EI-MS
Name: ETHOXYETHYLENE
Formula: C4H8O
Exact mass: 72.05751
Instrument type: EI-MS
m/z	relative intensity
14	52
15	150
26	95
27	518
28	92
29	625
30	19
31	112
39	15
41	37
42	85
43	999
44	989
45	126
57	20
72	463
73	21
