Mass spectrum: 4-NITROBENZOIC ACID CYCLOHEXYL ESTER; EI-MS
Formula: C13H15NO4
Exact mass: 249.10011
Instrument type: EI-MS
m/z	relative intensity
36	7
39	8
40	2
41	85
43	22
51	1
53	9
54	421
55	349
56	24
57	11
58	2
64	7
65	40
66	69
67	818
68	88
69	7
70	15
75	21
76	11
77	20
78	7
79	13
80	41
81	650
82	999
83	266
84	17
85	1
91	2
92	75
93	13
94	2
95	1
96	29
97	4
98	5
99	95
100	7
103	6
104	210
105	19
106	2
107	2
108	1
109	2
118	1
119	5
120	139
121	72
122	18
123	4
132	4
134	43
135	8
136	7
137	48
138	6
149	5
150	576
151	255
152	33
153	15
154	1
165	55
166	7
167	2
168	96
169	81
170	12
171	1
178	6
179	1
203	2
204	7
205	1
206	5
207	2
219	6
220	1
232	2
233	2
235	1
