Mass spectrum: DECANEDIOIC ACID DIHEXYL ESTER; EI-MS
Name: DIHEXYL SEBACATE
Formula: C22H42O4
Exact mass: 370.30831
Instrument type: EI-MS
m/z	relative intensity
42	77
43	396
56	233
57	72
61	87
67	15
69	101
70	25
71	17
73	45
81	31
82	50
83	87
84	377
85	158
87	30
95	19
96	32
97	123
98	308
99	20
101	69
109	10
110	19
111	60
112	38
115	50
121	50
123	9
124	50
125	240
126	43
127	43
128	13
129	98
130	25
131	9
137	12
138	136
139	148
140	16
141	4
142	13
143	334
144	50
145	8
148	24
149	33
152	27
153	7
157	91
158	33
159	12
165	5
166	187
167	57
168	5
169	6
171	52
185	999
186	116
187	8
213	27
214	26
226	11
227	242
228	39
240	36
241	41
242	56
255	47
256	6
268	18
269	823
270	152
271	15
287	31
