Mass spectrum: OCTANOIC ACID METHYL ESTER; EI-MS
Name: METHYL OCTANOATE
Formula: C9H18O2
Exact mass: 158.13068
Instrument type: EI-MS
m/z	relative intensity
15	28
27	61
28	19
29	87
39	46
41	164
42	48
43	245
45	14
55	167
56	28
57	169
59	119
69	58
73	15
74	999
75	62
83	26
84	28
87	421
88	36
97	15
98	15
101	65
115	80
127	116
129	34
159	12
