Mass spectrum: 1,1,6-TRIMETHYLINDAN; EI-MS
Formula: C12H16
Exact mass: 160.1252
Instrument type: EI-MS
m/z	relative intensity
14	10
15	66
27	59
28	49
39	70
41	31
51	51
53	28
65	35
70.5	36
77	47
79	16
91	43
103	17
105	65
115	96
128	104
129	78
145	999
160	167
161	21
