Mass spectrum: 1-NAPHTHYL N-TRIMETHYLSILYL-N-METHYLCARBAMATE; EI-MS
Formula: C15H19NO2Si
Exact mass: 273.11851
Instrument type: EI-MS
m/z	relative intensity
37	39
42	79
43	51
44	28
45	11
46	30
50	18
51	4
53	13
55	18
58	18
59	2
62	13
63	60
64	20
65	3
72	18
73	999
74	111
75	13
76	32
77	83
78	13
86	3
87	13
89	34
92	3
93	169
94	58
99	16
101	27
114	11
115	237
116	27
126	12
127	283
128	55
129	18
139	7
140	27
141	316
142	58
143	4
145	65
155	27
169	11
170	9
171	100
172	13
173	13
181	1
183	62
184	37
185	409
186	17
187	58
199	48
200	58
201	25
202	486
203	130
204	11
214	1
215	53
216	230
217	476
218	13
219	11
