Mass spectrum: PYRENE; EI-MS
Formula: C16H10
Exact mass: 202.07825
Instrument type: EI-MS
m/z	relative intensity
58	14
73	17
74	10
75	17
87	32
88	49
99	23
100	148
101	218
102	36
150	14
167	13
174	18
175	14
198	20
199	33
200	177
201	151
202	999
203	175
204	17
