Mass spectrum: 3-METHYLGLUTARIC ACID DIMETHYL ESTER; EI-MS
Name: 3-METHYLPENTANEDIOIC ACID DIMETHYL ESTER
Formula: C8H14O4
Exact mass: 174.08921
Instrument type: EI-MS
m/z	relative intensity
38	54
41	164
42	191
43	30
53	34
54	47
55	417
56	10
58	13
69	842
70	34
71	13
72	54
73	493
82	328
83	21
84	13
86	106
95	34
99	11
100	20
101	924
102	41
113	3
114	999
115	452
116	34
127	5
142	376
143	890
144	54
