Mass spectrum: ISOPROPYL VALERATE; EI-MS
Formula: C8H16O2
Exact mass: 144.11503
Instrument type: EI-MS
m/z	relative intensity
15	31
26	25
27	290
29	252
31	14
39	174
41	484
42	139
43	999
44	36
45	54
53	11
55	84
56	82
57	541
58	25
59	244
60	534
61	50
73	183
74	16
75	29
83	12
85	954
86	54
87	17
102	302
103	397
104	17
129	52
