Mass spectrum: 1,2-DIBUTYLHYDRAZINE; EI-MS
Formula: C8H20N2
Exact mass: 144.16265
Instrument type: EI-MS
m/z	relative intensity
27	87
28	167
29	179
30	38
31	46
32	58
39	38
41	15
42	29
43	124
44	46
45	42
46	9
55	24
56	18
57	12
58	15
59	29
70	50
71	2
72	31
87	33
99	83
101	999
102	75
113	11
115	7
142	1
144	316
145	38
