Mass spectrum: 7-BENZYLOXY-2',3'-DIHYDRO-2',2'-DIMETHYL-O,6'-BI(4H-1-BENZOPYRAN)-4-ONE; EI-MS
Name: 7-BENZYLOXYISONEOBAVAISOFLAVONE
Formula: C27H24O4
Exact mass: 412.16746
Instrument type: EI-MS
m/z	relative intensity
51	12
55	17
63	29
65	83
69	29
77	21
79	12
89	12
91	999
92	99
102	10
103	10
107	17
115	25
119	17
131	25
137	17
149	17
151	12
152	33
153	17
165	12
181	12
209	17
210	12
227	12
237	25
238	23
253	29
265	41
266	58
267	21
279	17
321	66
322	21
356	21
357	104
358	33
369	29
383	50
384	17
395	25
397	33
411	25
412	435
413	157
414	25
