Mass spectrum: PROPYL PROPIONATE; EI-MS
Formula: C6H12O2
Exact mass: 116.08373
Instrument type: EI-MS
m/z	relative intensity
15	16
26	26
27	187
28	58
29	377
30	12
31	56
39	36
41	108
42	98
43	236
55	11
56	19
57	999
58	38
59	58
73	10
74	36
75	444
76	16
86	10
87	87
