Mass spectrum: 2-HEPTANONE; EI-MS
Formula: C7H14O
Exact mass: 114.10447
Instrument type: EI-MS
m/z	relative intensity
15	46
26	11
27	127
29	99
39	94
41	119
42	56
43	999
44	25
55	45
57	11
58	623
59	98
71	132
72	17
85	15
99	26
114	52
