Mass spectrum: 2-(2-AMINO-2-METHYLPROPYL)-1-METHYL-3-(2,6,6-TRIMETHYL-1,2,3,6-TETRAHYDRO-4-PYRIDYL)INDOLE; EI-MS
Formula: C21H31N3
Exact mass: 325.2518
Instrument type: EI-MS
m/z	relative intensity
58	999
115	11
128	10
130	2
195	78
196	105
210	215
211	36
212	70
225	237
226	57
237	15
252	31
253	251
254	58
267	7
268	333
269	69
325	43
