Mass spectrum: 4,8-DIMETHYL-4-HYDROXY-1-NONENE; EI-MS
Name: 4,8-DIMETHYL-1-NONEN-4-OL
Formula: C11H22O
Exact mass: 170.16707
Instrument type: EI-MS
m/z	relative intensity
27	45
29	57
39	58
41	19
43	864
45	91
55	263
56	2
57	57
58	58
67	52
69	999
70	71
71	42
81	42
82	2
83	19
85	388
86	22
87	3
95	94
111	269
112	25
113	3
129	286
130	25
