Mass spectrum: 1,1-DICHLORO-1-PENTENE; EI-MS
Formula: C5H8Cl2
Exact mass: 138.00031
Instrument type: EI-MS
m/z	relative intensity
41	130
42	999
43	51
49	44
50	20
51	40
55	20
57	25
61	20
65	26
67	44
73	38
75	58
83	60
85	40
87	25
96	109
97	27
98	69
103	24
109	404
110	25
111	256
113	43
138	155
140	99
