Mass spectrum: METHYL FORMATE; EI-MS
Name: FORMIC ACID METHYL ESTER
Formula: C2H4O2
Exact mass: 60.02113
Instrument type: EI-MS
m/z	relative intensity
14	14
15	135
28	64
29	406
30	54
31	999
32	495
44	16
60	477
61	17
