Mass spectrum: (2E,6Z)-2,6-NONADIENAL; EI-MS
Formula: C9H14O
Exact mass: 138.10447
Instrument type: EI-MS
m/z	relative intensity
41	999
42	62
53	53
54	32
67	157
68	65
69	853
70	941
71	62
79	32
80	24
81	47
83	15
91	12
95	32
109	29
