Mass spectrum: ETHYL BROMOACETATE; EI-MS
Name: BROMOACETIC ACID ETHYL ESTER
Formula: C4H7BrO2
Exact mass: 165.96294
Instrument type: EI-MS
m/z	relative intensity
15	76
26	53
27	312
28	97
29	999
30	22
31	40
41	35
42	228
43	180
45	73
60	28
73	20
79	15
81	15
87	36
93	96
94	39
95	89
96	30
107	19
109	19
121	163
122	12
123	159
138	67
139	22
140	66
141	22
166	44
168	44
