Mass spectrum: CROTONIC ACID ETHYL ESTER; EI-MS
Name: 2-BUTENOIC ACID ETHYL ESTER
Formula: C6H10O2
Exact mass: 114.06808
Instrument type: EI-MS
m/z	relative intensity
15	24
26	16
27	70
28	21
29	119
38	21
39	182
40	35
41	306
42	28
43	16
45	40
68	45
69	999
70	53
71	13
86	59
87	19
99	263
100	14
114	31
