Mass spectrum: 2-AMINO-5-PHENYLPYRIDINE; EI-MS
Name: PHE-P-1
Formula: C11H10N2
Exact mass: 170.0844
Instrument type: EI-MS
m/z	relative intensity
41	60
42	11
43	16
50	62
51	91
52	48
53	14
54	6
57	30
58	48
61	13
62	40
63	85
64	25
65	43
66	14
67	11
68	32
70	21
71	63
74	33
75	39
76	63
77	56
78	17
84	28
85	115
86	18
87	20
88	23
89	71
90	0
91	15
101	14
102	91
103	30
104	11
113	24
114	45
115	351
116	128
117	43
126	18
127	19
128	14
130	63
140	34
141	27
142	98
143	363
144	42
152	12
153	30
154	12
168	29
169	21
170	999
171	143
172	11
