Mass spectrum: 2-NAPHTHYL ACETATE; EI-MS
Formula: C12H10O2
Exact mass: 186.06808
Instrument type: EI-MS
m/z	relative intensity
39	29
43	115
50	11
51	20
63	48
86	15
87	14
88	16
89	49
95	19
113	14
115	225
116	63
143	14
144	999
145	97
171	14
186	103
187	18
