Mass spectrum: 2-ETHYLPYRIDINE; EI-MS
Formula: C7H9N
Exact mass: 107.0735
Instrument type: EI-MS
m/z	relative intensity
27	63
28	42
29	45
37	18
38	30
39	220
40	13
41	10
50	23
51	160
52	150
53	68
54	20
62	10
63	21
64	11
65	60
66	10
76	19
77	74
78	150
79	250
80	44
92	20
105	46
106	999
107	421
108	35
