Mass spectrum: 2-OCTANOYLTHIOPHENE; EI-MS
Formula: C12H18OS
Exact mass: 210.10784
Instrument type: EI-MS
m/z	relative intensity
29	19
39	35
41	32
43	39
55	72
56	11
57	39
83	36
84	57
97	34
98	23
111	712
112	68
113	83
126	999
127	154
128	78
139	259
140	19
177	10
210	65
