Mass spectrum: 3-ACETYL-9-ISOPENTYLCARBAZOLE; EI-MS
Formula: C19H21NO
Exact mass: 279.16231
Instrument type: EI-MS
m/z	relative intensity
41	27
43	103
55	11
57	1
69	14
152	10
165	14
166	2
178	34
179	202
180	72
194	2
222	999
223	157
264	185
265	2
279	509
280	69
