Mass spectrum: 2-METHYL-1-TRIETHYLSILOXYPROPANE; EI-MS
Formula: C10H24OSi
Exact mass: 188.15964
Instrument type: EI-MS
m/z	relative intensity
41	63
43	28
45	98
47	164
57	50
58	70
59	190
60	20
61	40
73	26
74	20
75	784
76	59
77	27
87	166
88	33
89	17
100	17
102	724
103	71
104	27
112	82
113	85
131	49
159	999
160	144
161	45
188	4
