Mass spectrum: 1,10-DIHYDRO-11,13-DEHYDROMATRICARIN; EI-MS
Name: MONTANONE
Formula: C17H20O5
Exact mass: 304.13107
Instrument type: EI-MS
m/z	relative intensity
43	374
44	102
45	32
55	42
56	21
57	86
58	19
59	24
60	128
61	27
67	32
68	29
69	102
70	32
71	102
72	16
73	53
79	43
80	115
81	115
82	218
83	130
84	83
85	83
86	56
87	31
88	20
91	53
92	88
93	186
94	127
95	304
96	291
97	219
98	100
99	100
100	40
101	32
105	112
106	86
107	160
108	143
109	201
110	80
111	160
112	47
113	68
114	53
115	53
117	37
118	25
119	166
120	753
121	350
122	860
123	289
124	83
125	107
126	47
127	32
128	25
129	106
130	37
131	86
132	53
133	144
134	83
135	366
136	166
137	112
138	80
139	62
140	29
141	32
142	27
143	59
144	59
145	131
146	86
147	316
148	999
149	342
150	131
151	83
152	51
153	53
154	29
155	80
156	45
157	104
158	51
159	112
160	53
161	107
162	88
163	78
164	78
165	765
166	166
167	369
168	83
169	75
170	35
171	86
172	139
173	249
174	83
175	86
176	51
177	98
178	35
179	56
180	32
181	86
182	102
183	139
184	102
185	112
186	35
187	59
188	59
189	86
190	131
191	70
192	27
193	29
194	16
195	24
196	24
197	53
198	80
199	86
200	123
201	209
202	147
203	136
204	102
205	32
206	19
207	233
208	75
209	40
210	13
211	112
212	19
213	48
214	29
215	56
216	128
217	48
218	86
219	27
220	27
225	29
226	345
227	75
228	136
229	86
230	21
231	59
232	21
242	24
243	16
244	572
245	112
246	511
247	94
256	21
260	21
262	43
264	27
286	24
289	11
304	53
305	11
306	29
