Mass spectrum: 2-METHYL-5-(P-TOLYL)PYRIDINE; EI-MS
Formula: C13H13N
Exact mass: 183.1048
Instrument type: EI-MS
m/z	relative intensity
39	141
41	132
51	91
63	7
65	55
70	33
76	56
77	13
78	56
83.5	124
84	24
84.5	1
89	51
91	123
115	143
127	8
128	86
139	34
140	31
141	13
153	51
154	243
155	298
166	4
167	163
168	165
169	41
180	3
181	61
182	350
183	999
184	147
