Mass spectrum: HEPTADECANEDIOIC ACID BIS(TRIMETHYLSILYL)ESTER; EI-MS
Name: DI(TRIMETHYLSILYL) HEPTADECANEDIOATE
Formula: C23H48O4Si2
Exact mass: 444.30911
Instrument type: EI-MS
m/z	relative intensity
45	103
47	122
55	320
67	13
69	197
73	953
74	107
75	999
77	131
81	169
83	164
95	16
97	131
117	276
129	230
147	12
149	136
204	295
217	206
313	7
429	230
430	51
