Mass spectrum: M-CRESOL; EI-MS
Name: 3-METHYLPHENOL
Formula: C7H8O
Exact mass: 108.05751
Instrument type: EI-MS
m/z	relative intensity
27	34
38	22
39	83
40	14
41	11
50	26
51	52
52	26
53	55
54	27
55	17
63	28
65	22
77	158
78	34
79	193
80	61
89	27
90	98
91	47
107	764
108	999
109	85
