Mass spectrum: ACETOMETHANOL; EI-MS
Formula: C3H6O2
Exact mass: 74.03678
Instrument type: EI-MS
m/z	relative intensity
15	60
27	18
29	37
31	129
42	34
43	999
44	36
45	85
57	10
74	113
75	11
