Mass spectrum: DIISOBUTYL KETONE; EI-MS
Name: 2,6-DIMETHYL-4-HEPTANONE
Formula: C9H18O
Exact mass: 142.13577
Instrument type: EI-MS
m/z	relative intensity
15	14
27	94
28	16
29	160
39	92
40	16
41	331
42	51
43	205
55	25
56	21
57	999
58	253
59	23
67	15
69	45
71	15
84	20
85	709
86	36
100	29
127	36
142	87
143	15
