Mass spectrum: TETRAAMYLAMMONIUM IODIDE; EI-MS
Formula: C20H44IN
Exact mass: 425.25184
Instrument type: EI-MS
m/z	relative intensity
71	173
98	8
100	32
114	129
127	11
128	18
154	8
156	15
170	999
171	179
198	107
226	21
227	109
228	23
254	15
298	125
424	1
