Mass spectrum: METHOXYACETIC ACID; EI-MS
Formula: C3H6O3
Exact mass: 90.03169
Instrument type: EI-MS
m/z	relative intensity
13	11
14	36
15	198
27	16
29	386
30	25
31	150
39	12
41	25
42	81
43	17
44	18
45	999
46	29
59	11
60	269
61	14
69	12
