Mass spectrum: 6-METHYL-2,4-HEPTANEDIONE; EI-MS
Formula: C8H14O2
Exact mass: 142.09938
Instrument type: EI-MS
m/z	relative intensity
15	33
27	92
28	28
29	102
31	23
39	82
40	15
41	178
42	51
43	832
44	22
55	29
56	23
57	271
58	110
67	16
71	34
72	23
85	999
86	47
100	244
101	12
127	117
128	9
142	105
143	12
