Mass spectrum: ETHYL SALICYLATE; EI-MS
Formula: C9H10O3
Exact mass: 166.06299
Instrument type: EI-MS
m/z	relative intensity
37	11
38	27
39	177
50	14
51	10
53	36
62	21
63	98
64	101
65	174
66	16
81	20
92	428
93	89
120	999
121	282
122	22
138	11
166	311
167	26
