Mass spectrum: BENZYL 2-HYDROXYPHENYL SULFIDE; EI-MS
Name: 2-PHENYLMETHYLTHIO-PHENOL
Formula: C13H12OS
Exact mass: 216.06089
Instrument type: EI-MS
m/z	relative intensity
39	51
45	25
51	25
53	2
63	32
65	118
77	9
89	2
91	999
92	91
125	11
126	1
216	210
217	35
