Mass spectrum: 3,7-DIMETHYL-2,6-OCTADIENENITRILE(TRANS); EI-MS
Name: TRANS-GERANYL NITRILE
Formula: C10H15N
Exact mass: 149.12045
Instrument type: EI-MS
m/z	relative intensity
27	79
28	11
29	28
39	103
40	17
41	559
42	17
43	20
51	18
53	68
55	11
65	12
67	26
68	18
69	999
70	42
78	10
81	51
93	10
134	51
149	22
