Mass spectrum: 3-ETHYL-5,6,7,8-TETRAHYDROQUINOLINE; EI-MS
Formula: C11H15N
Exact mass: 161.12045
Instrument type: EI-MS
m/z	relative intensity
18	119
26	20
27	114
29	7
30	15
38	24
39	203
40	3
41	133
42	22
43	18
50	7
51	142
52	97
53	83
54	3
55	31
56	12
57	81
58.5	1
62	16
63	81
64	34
64.5	1
65	155
65.5	57
66	37
67	3
68	19
69	19
71.5	17
72	2
72.5	13
73	11
74	18
75	2
76	30
77	223
78	233
79	9
80	36
81	15
89	39
90	3
91	254
92	45
93	29
94	1
96	15
102	23
103	63
104	6
105	61
106	34
107	23
115	7
116	35
117	155
118	180
119	6
120	49
121	13
124	20
127	1
128	31
129	34
130	138
131	12
132	558
133	284
134	52
135	2
142	21
143	57
144	83
145	11
146	193
147	94
156	11
158	5
159	39
160	759
161	999
162	12
163	12
