Mass spectrum: ETHYL PROPIONATE; EI-MS
Formula: C5H10O2
Exact mass: 102.06808
Instrument type: EI-MS
m/z	relative intensity
14	10
15	26
17	25
26	58
27	243
28	165
29	905
30	33
31	67
40	13
42	34
43	49
45	126
46	13
55	24
56	44
57	999
58	45
73	60
74	102
75	117
87	23
102	150
