Mass spectrum: 5-HEXYL-2-METHYLPYRIDINE; EI-MS
Formula: C12H19N
Exact mass: 177.15175
Instrument type: EI-MS
m/z	relative intensity
39	58
41	65
42	17
43	7
51	25
52	19
53	37
55	2
65	44
66	15
77	148
78	4
79	88
80	14
91	35
92	3
93	29
94	17
104	14
105	3
106	999
107	357
108	30
117	3
118	18
119	48
120	358
121	7
130	10
131	13
132	58
133	1
134	134
135	36
148	44
149	1
162	16
175	23
176	48
177	23
178	4
