Mass spectrum: HEXADECANOIC ACID TRIMETHYLSILYL ESTER; EI-MS
Formula: C19H40O2Si
Exact mass: 328.27976
Instrument type: EI-MS
m/z	relative intensity
43	309
45	145
55	372
57	15
69	172
73	818
75	627
77	11
97	136
117	999
129	327
131	12
132	345
133	63
145	263
313	50
314	90
