Mass spectrum: 2-BUTYL-4-METHYLTHIAZOLE; EI-MS
Formula: C8H13NS
Exact mass: 155.07687
Instrument type: EI-MS
m/z	relative intensity
39	40
41	56
42	20
45	23
54	12
68	90
71	200
72	268
73	140
74	21
85	11
100	11
112	210
114	179
115	130
126	450
127	291
128	36
140	150
154	21
155	80
156	20
