Mass spectrum: MALONIC ACID DIMETHYL ESTER (1,1,1,7,7,7-D6); EI-MS
Name: PROPANEDIOIC ACID DIMETHYL ESTER (1,1,1,7,7,7-D6)
Formula: C5H8O4
Exact mass: 132.04226
Instrument type: EI-MS
m/z	relative intensity
18	471
28	46
29	33
30	58
32	127
33	27
41	28
42	177
43	22
44	166
45	16
48	17
50	50
60	272
61	27
62	999
63	29
69	96
78	344
79	13
102	19
103	31
104	778
105	39
110	10
120	14
138	31
