Mass spectrum: QUINOLINE; EI-MS
Formula: C9H7N
Exact mass: 129.05785
Instrument type: EI-MS
m/z	relative intensity
26	13
27	29
38	18
39	34
41	16
43	29
50	73
51	132
52	31
55	13
57	25
62	19
63	39
64	17
64.5	44
71	13
74	40
75	65
76	84
77	34
78	25
101	58
102	216
103	65
127	38
128	159
129	999
130	101
