Mass spectrum: 2-OCTENOL; EI-MS
Formula: C8H16O
Exact mass: 128.12012
Instrument type: EI-MS
m/z	relative intensity
41	328
42	173
43	343
44	149
45	45
54	286
55	361
56	209
57	999
58	90
66	30
67	214
68	269
69	179
70	75
71	90
72	27
81	209
82	149
83	30
84	60
95	90
99	119
110	119
