Mass spectrum: N-PROPYLACETAMIDE; EI-MS
Formula: C5H11NO
Exact mass: 101.08406
Instrument type: EI-MS
m/z	relative intensity
14	11
15	81
26	13
27	7
28	81
29	27
30	999
31	2
39	29
41	66
42	47
43	38
44	131
56	13
58	48
60	5
72	128
73	29
86	78
101	20
102	18
