Mass spectrum: 3-ETHYL-6-METHYL-4H-PYRIDO(1,2-A)PYRIMIDIN-4-ONE; EI-MS
Formula: C11H12N2O
Exact mass: 188.09496
Instrument type: EI-MS
m/z	relative intensity
39	148
41	40
51	34
52	4
53	25
55	37
63	25
64	4
65	246
66	68
72	22
72.5	2
78	22
91	40
92	492
93	16
119	52
132	29
143	37
145	85
146	86
159	88
160	52
173	79
174	95
187	31
188	999
189	12
190	6
