Mass spectrum: PHENYLETHYL 2-METHYLBUTYRATE; EI-MS
Formula: C13H18O2
Exact mass: 206.13068
Instrument type: EI-MS
m/z	relative intensity
27	36
29	72
39	35
41	76
51	22
55	13
56	10
57	308
58	11
65	26
77	58
78	24
79	31
85	59
91	66
92	11
103	38
104	999
105	177
106	10
