Mass spectrum: BENZYL ALCOHOL; EI-MS
Formula: C7H8O
Exact mass: 108.05751
Instrument type: EI-MS
m/z	relative intensity
49	29
50	200
51	505
52	101
53	83
54	21
60	27
61	53
62	123
63	20
65	91
74	43
75	31
76	27
77	671
78	131
79	999
80	118
89	70
90	71
91	753
92	58
105	30
107	469
108	987
109	74
