Mass spectrum: ISOVALERIC ACID; EI-MS
Formula: C5H10O2
Exact mass: 102.06808
Instrument type: EI-MS
m/z	relative intensity
14	11
15	29
26	16
27	243
29	69
31	26
37	12
38	21
39	230
40	28
41	378
42	96
43	335
44	12
45	186
55	22
56	28
57	25
59	33
60	999
61	47
69	35
74	12
85	11
87	153
