Mass spectrum: CYCLOHEXENE-4-CARBOXYLIC ACID METHYL ESTER; EI-MS
Formula: C8H12O2
Exact mass: 140.08373
Instrument type: EI-MS
m/z	relative intensity
42	17
45	45
50	45
51	5
52	51
53	160
54	149
55	7
56	11
59	74
61	17
63	2
65	34
66	57
67	34
68	2
74	63
77	120
78	22
79	53
80	902
81	999
82	68
91	2
93	22
95	17
97	40
98	1
107	28
108	454
109	155
110	2
111	28
112	22
125	28
139	1
140	212
141	17
