Mass spectrum: 2,4-DIMETHYLPYRIDINE; EI-MS
Formula: C7H9N
Exact mass: 107.0735
Instrument type: EI-MS
m/z	relative intensity
37	38
38	90
39	34
40	8
41	69
42	65
44	26
49	2
50	63
51	52
52	80
53	7
54	29
61	31
62	22
63	7
64	40
65	140
66	105
67	4
68	29
75	27
77	79
78	5
79	213
80	57
81	29
91	3
92	174
93	62
104	28
105	3
106	370
107	999
108	73
120	5
121	64
