Mass spectrum: THYMYL ACETATE; EI-MS
Name: 2-ISOPROPYL-5-METHYLPHENYL ACETATE
Formula: C12H16O2
Exact mass: 192.11503
Instrument type: EI-MS
m/z	relative intensity
15	58
18	29
27	40
28	14
39	68
41	55
42	13
43	258
51	36
52	14
53	33
55	12
63	20
65	49
77	91
78	36
79	47
89	12
91	164
92	13
103	19
105	59
107	31
109	14
115	64
116	20
117	34
121	36
133	17
134	30
135	999
136	98
149	20
150	339
151	39
192	78
