Mass spectrum: AMITRIPTYLINE; EI-MS
Formula: C20H23N
Exact mass: 277.18305
Instrument type: EI-MS
m/z	relative intensity
56	14
57	14
58	999
59	5
91	24
115	14
128	14
141	1
152	9
165	11
178	17
179	1
189	14
191	11
192	9
193	1
194	4
202	31
203	24
204	2
205	11
206	9
207	9
215	2
216	11
217	19
218	21
219	2
220	9
