Mass spectrum: FURFURYL FORMATE; EI-MS
Formula: C6H6O3
Exact mass: 126.03169
Instrument type: EI-MS
m/z	relative intensity
26	29
27	161
29	169
31	37
37	31
38	60
39	164
40	12
41	82
42	45
43	15
50	69
51	113
52	267
53	422
54	20
55	13
69	37
70	31
80	253
81	999
82	56
95	34
97	35
98	71
126	490
127	32
