Mass spectrum: 1,4-BUTANEDIAMINE; EI-MS
Name: PUTRESCINE
Formula: C4H12N2
Exact mass: 88.10005
Instrument type: EI-MS
m/z	relative intensity
15	15
18	77
27	24
28	112
29	16
30	999
31	104
39	19
41	47
42	54
43	326
44	104
56	22
58	13
59	127
70	35
71	71
88	18
