Mass spectrum: 6-BROMO-1,2,3,4-TETRAHYDRO-3-METHYL-GAMMA-CARBOLINE; EI-MS
Formula: C12H13BrN2
Exact mass: 264.02621
Instrument type: EI-MS
m/z	relative intensity
42	61
71	10
85	102
142	13
143	50
221	999
222	98
223	97
224	83
263	63
264	161
265	10
266	150
