Mass spectrum: CIS-3-HEXENYL ACETATE; EI-MS
Formula: C8H14O2
Exact mass: 142.09938
Instrument type: EI-MS
m/z	relative intensity
15	51
27	93
28	20
29	45
39	120
40	15
41	176
42	38
43	999
44	24
51	12
53	44
54	70
55	62
67	563
68	37
69	15
73	31
81	44
82	393
83	32
