Mass spectrum: 4-METHYLCYCLOHEXANOL; EI-MS
Formula: C7H14O
Exact mass: 114.10447
Instrument type: EI-MS
m/z	relative intensity
18	30
27	90
28	40
29	15
30	30
31	40
39	88
40	3
41	279
42	80
43	93
44	11
45	27
51	30
53	45
54	5
55	268
56	108
57	999
58	42
59	35
67	86
68	85
69	4
70	299
71	113
72	20
73	2
77	40
79	30
81	392
82	5
83	25
84	30
85	45
86	3
95	50
96	290
97	55
112	3
113	30
114	29
