Mass spectrum: N-BUTYLACETAMID; EI-MS
Name: ACETYLAMIN0BUTANE
Formula: C6H13NO
Exact mass: 115.09971
Instrument type: EI-MS
m/z	relative intensity
30	999
31	30
41	16
43	73
44	351
45	39
56	33
57	24
58	67
60	175
72	543
73	740
74	31
86	302
87	33
100	285
101	18
115	341
116	67
