Mass spectrum: 2-ETHYL-4-ISOPROPOXY-6-METHYLPYRIMIDINE; EI-MS
Formula: C10H16N2O
Exact mass: 180.12626
Instrument type: EI-MS
m/z	relative intensity
39	350
67	930
122	810
137	999
138	450
180	230
