Mass spectrum: METHANE; EI-MS
Formula: CH4
Exact mass: 16.0313
Instrument type: EI-MS
m/z	relative intensity
12	27
13	76
14	154
15	831
16	999
17	11
