Mass spectrum: PARA-ANISALDEHYDE DIETHYL ACETAL; EI-MS
Formula: C12H18O3
Exact mass: 210.12559
Instrument type: EI-MS
m/z	relative intensity
27	52
29	145
31	17
39	24
47	41
51	28
63	19
64	20
65	36
66	31
75	19
77	162
78	24
79	22
91	13
92	36
93	13
94	74
105	12
107	20
108	10
109	197
110	15
121	20
122	12
135	152
136	33
137	608
138	47
153	11
165	999
166	102
210	37
