Mass spectrum: ACROLEIN; EI-MS
Name: 2-PROPENAL
Formula: C3H4O
Exact mass: 56.02621
Instrument type: EI-MS
m/z	relative intensity
24	21
25	83
26	445
27	66
28	33
29	377
36	40
37	11
38	93
39	71
52	26
53	9
55	649
56	999
57	53
