Mass spectrum: ETHOXYCARBONYLMETHYL ETHYL PHTHALATE; EI-MS
Name: ETHYL PHTHALYL ETHYL GLYCOLATE
Formula: C14H16O6
Exact mass: 280.09469
Instrument type: EI-MS
m/z	relative intensity
43	26
45	21
50	71
51	21
58	39
65	86
66	41
75	2
76	134
77	48
87	39
88	8
93	69
104	135
105	96
121	6
132	47
149	999
150	82
163	2
176	104
177	422
178	49
235	29
236	52
280	92
