Mass spectrum: METHYL 2-AMINO-3-(4-(N,N-BIS(2-CHLOROETHYL)AMINO)PHENYLPROPIONATE; EI-MS
Formula: C14H20Cl2N2O2
Exact mass: 318.09018
Instrument type: EI-MS
m/z	relative intensity
63	25
90	31
91	31
105	4
117	20
118	200
119	81
132	4
146	44
149	47
168	30
181	8
183	20
194	22
209	16
212	4
230	999
231	125
232	647
233	9
234	128
259	72
261	45
269	1
318	30
320	20
