Mass spectrum: 3BETA-ACETOXY-5ALPHA-LANOST-8-EN-7ALPHA-OL; EI-MS
Formula: C32H54O3
Exact mass: 486.4073
Instrument type: EI-MS
m/z	relative intensity
171	50
196	50
240	50
241	3
253	80
312	50
339	50
393	2
453	80
454	20
468	999
469	4
470	50
486	10
