Mass spectrum: 2-(4-BROMOPHENYL)-2-OXOETHYL 9,10-BIS(TRIMETHYLSILOXY)OCTADEC-12(Z)-ENOATE; EI-MS
Formula: C32H55BrO5Si2
Exact mass: 654.27714
Instrument type: EI-MS
m/z	relative intensity
670	169
690	87
730	999
740	98
750	207
760	49
810	134
930	41
950	57
1010	58
1030	208
1090	134
1210	44
1230	62
1250	42
1290	367
1300	69
1310	41
1330	41
1370	44
1430	52
1470	237
1490	58
1550	261
1570	41
1670	52
1830	213
1850	204
1910	66
2120	118
2130	407
2140	86
2150	41
2270	140
2390	40
2430	113
2570	97
2720	42
3170	53
4410	336
4420	92
4430	336
4440	94
4530	171
4540	51
4550	189
4560	52
5140	6
5150	7
5160	8
5170	6
5430	144
5440	55
5450	166
5460	56
5470	21
5480	5
5640	6
5650	25
5660	14
5670	27
5680	10
5690	4
6370	5
6390	14
6400	6
6410	11
6420	5
