Mass spectrum: 5-(2-ACETOXYETHYLAMINO)-3-METHOXY-2,6-DIMETHYL-(6R*)-((2R*)-2-METHYLBUTYRYLOXY)-2,4-CYCLOHEXADIEN-1-ONE; EI-MS
Name: WASABIDIENONE-E ACETATE
Formula: C18H27NO6
Exact mass: 353.18384
Instrument type: EI-MS
m/z	relative intensity
41	130
42	20
43	515
44	15
45	20
53	40
54	20
55	6
56	30
57	470
58	30
59	6
65	20
67	40
68	40
69	5
70	20
72	30
74	45
77	3
79	30
80	30
82	20
83	6
85	80
87	630
88	40
91	2
92	20
94	30
95	20
96	2
106	20
107	20
108	20
109	2
111	60
112	45
122	45
123	5
124	40
136	45
137	30
138	8
139	30
140	60
141	30
147	3
148	30
149	30
150	75
151	5
152	50
154	20
156	30
164	12
165	45
166	190
167	70
168	9
178	60
179	20
180	120
181	5
182	340
183	60
184	45
192	5
193	20
194	65
208	999
209	19
210	100
212	175
223	130
224	22
225	60
226	455
227	60
228	15
251	30
252	45
253	60
254	21
255	30
268	440
269	80
270	11
296	45
310	45
311	60
313	8
353	485
354	145
