Mass spectrum: TETRAFLUOROFORMAMIDINE DIMER; EI-MS
Formula: C2F8N4
Exact mass: 231.99952
Instrument type: EI-MS
m/z	relative intensity
19	25
20	91
26	31
31	49
33	138
45	102
50	291
52	7
59	83
65	277
69	999
83	23
95	165
102	334
109	196
114	3
128	510
