Mass spectrum: NORBORNYL ACETATE; EI-MS
Name: ENDO-BICYCLO(2.2.1)HEPT-2-YL ACETATE
Formula: C9H14O2
Exact mass: 154.09938
Instrument type: EI-MS
m/z	relative intensity
41	11
43	715
44	18
55	28
57	13
58	78
59	85
66	740
67	307
68	64
70	16
71	150
79	222
80	18
81	25
82	11
83	71
84	29
87	20
92	10
93	78
94	999
95	143
96	61
97	40
108	26
110	71
111	347
112	96
113	13
126	66
139	17
154	36
