Mass spectrum: (4-PHENYL-2-BUTENYL)TRIMETHYLSILANE; EI-MS
Name: 1-PHENYL-4-TRIMETHYLSILYL-2-BUTENE
Formula: C13H20Si
Exact mass: 204.13343
Instrument type: EI-MS
m/z	relative intensity
43	23
45	63
59	71
65	12
73	999
74	85
75	43
77	12
91	32
115	18
128	17
129	27
130	127
131	16
135	38
161	22
189	11
204	94
205	19
