Mass spectrum: TRIMETHYLOLPROPANE TRIACRYLATE; EI-MS
Formula: C15H20O6
Exact mass: 296.12599
Instrument type: EI-MS
m/z	relative intensity
55	999
56	35
67	28
68	164
69	43
70	23
73	17
80	52
81	30
82	32
83	27
84	17
85	23
94	18
95	35
96	40
97	79
98	43
107	10
108	12
109	20
110	18
111	14
112	20
122	19
123	43
124	88
125	16
127	157
137	22
139	51
140	202
141	20
152	178
153	27
169	62
211	29
225	16
