Mass spectrum: CHLOROBENZENE; EI-MS
Formula: C6H5Cl
Exact mass: 112.00798
Instrument type: EI-MS
m/z	relative intensity
37	52
38	73
39	26
45	12
49	46
50	250
51	258
56	3
61	22
73	61
74	114
75	10
76	62
77	676
78	44
89	3
112	999
113	70
114	314
