Mass spectrum: O-AMINOACETOPHENONE; EI-MS
Formula: C8H9NO
Exact mass: 135.06841
Instrument type: EI-MS
m/z	relative intensity
39	79
41	10
42	21
43	180
45	10
52	11
64	15
65	570
66	124
67	12
76	11
77	49
78	24
79	39
89	10
90	24
92	778
93	146
106	108
107	67
118	10
119	11
120	999
121	181
122	10
134	10
135	804
136	158
137	10
