Mass spectrum: DIETHYLENE GLYCOL MONOMETHYL ETHER; EI-MS
Name: METHYLCELLOSOLVE
Formula: C5H12O3
Exact mass: 120.07864
Instrument type: EI-MS
m/z	relative intensity
15	20
27	18
28	27
29	10
31	143
33	15
43	48
44	4
45	999
46	23
58	363
59	50
60	60
75	108
77	11
87	3
89	125
90	170
91	11
