Mass spectrum: 4-ALLYLANISOLE; EI-MS
Formula: C10H12O
Exact mass: 148.08882
Instrument type: EI-MS
m/z	relative intensity
40	10
41	50
42	10
43	15
50	80
51	145
52	65
53	35
55	10
56	65
57	15
58	15
63	95
64	15
65	55
69	15
71	10
75	10
76	15
77	210
78	105
79	105
83	10
89	30
90	10
91	135
92	20
93	10
102	20
103	60
104	25
105	135
106	25
107	30
108	15
111	10
115	135
116	65
117	275
118	35
119	25
121	445
122	25
129	10
131	25
132	40
133	175
134	15
145	10
146	10
147	425
148	999
149	110
150	15
