Mass spectrum: PROPYL CHLORIDE; EI-MS
Formula: C3H7Cl
Exact mass: 78.02363
Instrument type: EI-MS
m/z	relative intensity
15	23
26	45
27	355
28	138
29	444
30	10
37	24
38	34
39	114
40	32
41	238
42	999
43	139
49	38
51	14
63	46
65	13
78	60
80	20
