Mass spectrum: DIMETHYL BENZO(C)NAPHTHO(2,3-H)-11-OXOBICYCLO(4.4.1)UNDECA-3,8-DIENE-1,6-DICARBOXYLATE; EI-MS
Formula: C27H24O5
Exact mass: 428.16237
Instrument type: EI-MS
m/z	relative intensity
59	104
91	84
105	500
106	127
115	188
128	84
132	83
139	108
140	82
141	128
152	93
153	180
154	405
155	206
165	332
166	153
178	110
198	103
233	210
252	95
264	78
265	396
266	158
267	82
278	82
279	115
280	167
281	206
282	66
291	274
292	135
293	47
308	76
309	69
318	50
319	538
320	145
336	132
337	130
340	40
346	64
347	45
350	104
351	135
352	40
364	91
368	46
369	57
378	95
396	54
397	82
410	234
411	75
428	999
429	292
430	53
