Mass spectrum: HEPTANE-4,4-DICARBOXYLIC ACID BIS(TRIMETHYLSILYL) ESTER; EI-MS
Name: DI(TRIMETHYLSILYL) 4,4-HEPTANEDICARBOXYLATE
Formula: C15H32O4Si2
Exact mass: 332.18391
Instrument type: EI-MS
m/z	relative intensity
44	127
45	205
55	104
69	19
73	793
75	201
97	831
147	999
148	146
171	161
199	103
259	50
260	158
261	257
