Mass spectrum: DIMETHYL OXALATE; EI-MS
Formula: C4H6O4
Exact mass: 118.02661
Instrument type: EI-MS
m/z	relative intensity
15	320
29	31
33	11
43	46
45	296
59	999
60	38
118	44
