Mass spectrum: 4-HYDROXYBENZALDEHYDE; EI-MS
Formula: C7H6O2
Exact mass: 122.03678
Instrument type: EI-MS
m/z	relative intensity
18	13
27	18
28	55
29	53
32	11
37	19
38	59
39	311
40	35
47	11
50	44
51	42
53	49
55	21
61	16
62	41
63	108
64	46
65	400
66	75
74	20
75	16
92	27
93	330
94	61
121	999
122	906
123	109
