Mass spectrum: N-ACETYL-GLYCYL-METHIONYL-GLYCINE ETHYLESTER; EI-MS
Formula: C13H23N3O5S
Exact mass: 333.13584
Instrument type: EI-MS
m/z	relative intensity
15	40
26	12
27	67
28	10
29	112
30	626
31	32
39	3
40	13
41	86
42	51
43	22
44	38
45	28
46	15
47	3
48	18
55	69
56	394
57	10
58	30
59	17
60	18
61	29
62	19
63	22
67	23
68	3
69	34
70	29
71	36
72	14
73	77
74	44
75	36
76	2
77	11
79	11
81	21
82	2
83	35
84	28
85	49
86	3
87	24
88	36
90	17
91	1
96	20
97	24
98	34
99	6
100	127
101	17
102	32
103	1
104	999
105	73
106	28
109	1
110	12
111	17
112	29
113	3
114	133
115	27
116	20
117	1
125	12
127	23
128	17
130	2
131	15
138	16
139	17
141	1
143	29
149	14
156	80
157	2
158	36
159	34
160	52
162	5
169	64
170	10
171	10
173	3
185	13
186	15
187	22
189	1
202	19
203	18
213	17
217	1
219	13
224	36
230	26
231	5
232	12
241	20
254	14
259	52
260	86
261	19
272	23
288	3
289	10
319	12
333	51
334	14
