Mass spectrum: PENTAMETHYLPHENYLDISILANE; EI-MS
Formula: C11H20Si2
Exact mass: 208.11035
Instrument type: EI-MS
m/z	relative intensity
43	22
45	15
73	190
74	16
105	28
107	24
119	12
120	18
134	12
135	999
136	142
137	42
177	16
179	14
191	12
193	96
194	22
208	195
209	44
210	20
