Mass spectrum: 1,4-DIMETHYLPYRAZOLE; EI-MS
Formula: C5H8N2
Exact mass: 96.06875
Instrument type: EI-MS
m/z	relative intensity
26	41
27	120
28	155
29	2
30	14
37	20
38	44
39	14
40	48
41	182
42	369
43	7
50	15
51	29
52	45
53	9
54	166
55	89
56	20
57	3
65	11
66	39
67	47
68	21
69	45
70	11
79	10
80	1
81	83
82	28
83	22
93	1
94	19
95	999
96	931
97	6
98	3
