Mass spectrum: ETHYL ALPHA-CYANO-GAMMA-KETOVALERATE; EI-MS
Formula: C8H11NO3
Exact mass: 169.07389
Instrument type: EI-MS
m/z	relative intensity
41	28
42	999
43	12
44	17
50	25
51	15
52	206
53	20
80	16
82	14
96	16
98	44
106	14
123	12
124	132
126	13
152	19
169	28
