Mass spectrum: PROPARGYL ALCOHOL; EI-MS
Formula: C3H4O
Exact mass: 56.02621
Instrument type: EI-MS
m/z	relative intensity
24	16
25	47
26	82
27	166
28	184
29	148
30	24
31	18
36	22
37	82
38	117
39	245
40	11
52	11
53	75
54	16
55	999
56	35
