Mass spectrum: 3-METHYLPENTANE-1,3,5-TRIOL; EI-MS
Formula: C6H14O3
Exact mass: 134.09429
Instrument type: EI-MS
m/z	relative intensity
41	19
43	255
45	14
55	23
56	15
59	21
61	53
67	15
68	25
69	30
70	30
71	372
72	20
73	107
81	13
83	51
89	999
90	44
98	13
99	17
101	73
119	44
134	5
