Mass spectrum: BENZENE; EI-MS
Formula: C6H6
Exact mass: 78.04695
Instrument type: EI-MS
m/z	relative intensity
36	18
37	65
38	74
39	152
49	69
50	191
51	252
52	205
61	26
62	99
63	65
64	38
73	26
74	73
75	24
76	59
77	229
78	999
79	74
