Mass spectrum: BETA-PHENOXYETHYL ACETATE; EI-MS
Formula: C10H12O3
Exact mass: 180.07864
Instrument type: EI-MS
m/z	relative intensity
15	49
27	20
38	15
39	72
40	11
42	16
43	914
44	22
45	14
50	22
51	79
63	18
65	58
66	21
77	168
78	17
79	20
87	999
88	44
91	23
94	176
95	16
107	32
120	24
121	10
180	50
