Mass spectrum: GAMMA-OCTALACTONE; EI-MS
Formula: C8H14O2
Exact mass: 142.09938
Instrument type: EI-MS
m/z	relative intensity
26	14
27	129
28	56
29	243
39	60
40	10
41	94
42	44
43	20
44	18
53	14
54	14
55	64
56	76
57	67
58	15
67	10
69	21
70	28
72	16
82	11
84	11
85	999
86	39
87	14
96	10
100	42
114	15
124	15
