Mass spectrum: 2,6,11-TETRAMETHYLDODECANE; EI-MS
Formula: C15H32
Exact mass: 212.2504
Instrument type: EI-MS
m/z	relative intensity
27	246
29	292
41	572
43	999
56	272
57	995
69	123
71	820
84	52
85	289
98	27
99	69
112	82
113	107
126	64
127	93
141	12
169	28
197	11
212	4
