Mass spectrum: ISOFLAVANONE; EI-MS
Name: 3-PHENYLCHROMAN-4-ONE
Formula: C15H12O2
Exact mass: 224.08373
Instrument type: EI-MS
m/z	relative intensity
28	60
39	24
51	37
63	5
64	63
65	13
77	60
78	8
91	12
92	265
103	86
104	39
105	21
120	999
121	76
147	1
149	22
223	24
224	378
225	49
