Mass spectrum: (2S*,11R*)-2-(4,8,14,15,15-PENTAMETHYLBICYCLO(9.3.1)PENTADECA-4(E),8(E),14-TRIENE)CARBONITRILE; EI-MS
Formula: C21H32N
Exact mass: 298.25348
Instrument type: EI-MS
m/z	relative intensity
55	104
57	110
67	137
68	8
69	374
79	55
81	428
82	16
83	187
91	27
93	225
94	15
95	598
96	50
97	33
105	6
106	30
107	675
108	135
109	82
110	104
118	55
119	365
120	14
121	422
122	110
123	454
131	12
132	278
133	296
134	131
135	29
136	41
137	11
144	220
145	13
146	538
147	159
148	38
158	15
159	615
160	220
161	238
171	3
172	102
173	104
174	22
175	11
186	77
187	22
189	41
198	1
200	16
201	18
212	16
213	1
214	132
226	15
228	16
229	1
240	12
254	92
255	12
269	1
282	999
283	165
297	143
298	12
