Mass spectrum: 5-FLUOROURIDINE; EI-MS
Formula: C9H11FN2O6
Exact mass: 262.06011
Instrument type: EI-MS
m/z	relative intensity
39	70
40	40
41	140
42	1
43	210
44	170
45	230
55	2
56	100
57	420
58	130
59	1
60	230
61	210
68	60
69	2
70	80
71	270
72	100
73	5
74	120
75	60
77	20
82	0
83	20
84	70
85	210
86	1
87	250
88	130
89	30
97	1
98	20
100	90
101	100
102	1
103	100
112	20
113	80
114	2
115	250
116	70
128	50
130	3
131	350
132	100
133	999
134	1
135	30
142	20
143	40
156	0
157	20
158	10
159	40
171	0
172	10
173	100
174	10
185	0
187	20
189	30
197	30
201	0
213	80
214	10
228	10
231	0
244	30
262	130
263	40
