Mass spectrum: 2-METHYL-1-PENTANOL; EI-MS
Formula: C6H14O
Exact mass: 102.10447
Instrument type: EI-MS
m/z	relative intensity
15	11
27	115
28	17
29	162
31	136
39	84
40	15
41	255
42	159
43	999
44	35
45	32
53	15
55	219
56	176
57	44
59	19
69	211
70	267
71	322
72	19
83	14
84	112
85	126
