Mass spectrum: PARA-ISOPROPYLANISOLE; EI-MS
Formula: C10H14O
Exact mass: 150.10447
Instrument type: EI-MS
m/z	relative intensity
27	10
39	31
41	19
50	1
51	20
53	10
63	20
64	1
65	40
68	12
77	60
78	2
79	50
89	12
91	100
92	3
94	11
103	67
104	10
105	16
106	10
107	41
108	20
109	1
115	10
117	8
119	30
120	5
121	20
122	16
128	10
131	1
133	10
134	41
135	999
136	10
144	15
145	45
146	20
147	1
148	16
150	270
151	30
160	10
