Mass spectrum: 2-DECANONE; EI-MS
Formula: C10H20O
Exact mass: 156.15142
Instrument type: EI-MS
m/z	relative intensity
15	28
27	115
29	135
39	81
41	225
42	56
43	904
44	18
53	15
54	13
55	88
56	43
57	141
58	999
59	243
67	13
69	20
70	17
71	268
72	14
81	12
82	11
85	34
96	28
98	38
113	14
141	14
156	40
