Mass spectrum: OCTANOL; EI-MS
Formula: C8H18O
Exact mass: 130.13577
Instrument type: EI-MS
m/z	relative intensity
15	14
18	12
26	17
27	349
28	42
29	442
30	14
31	445
39	239
40	37
41	930
42	586
43	724
44	36
45	37
51	11
53	48
54	44
55	855
56	999
57	369
58	17
67	40
68	172
69	569
70	653
71	64
73	23
82	65
83	371
84	537
85	28
97	23
112	32
