Mass spectrum: 2-CYCLOPENTENONE; EI-MS
Formula: C5H6O
Exact mass: 82.04186
Instrument type: EI-MS
m/z	relative intensity
14	15
15	10
25	2
26	198
27	315
29	13
37	45
38	60
39	73
40	32
41	15
42	31
43	1
49	32
50	108
51	103
52	5
53	383
56	74
61	10
62	10
81	15
82	999
83	60
84	13
