Mass spectrum: 4-ACETYL-6-TERT-BUTYL-1,1-DIMETHYLINDANE; EI-MS
Formula: C17H24O
Exact mass: 244.18272
Instrument type: EI-MS
m/z	relative intensity
29	11
41	22
43	999
44	19
55	10
57	392
58	10
104	23
105	10
117	10
129	10
131	184
143	10
145	38
171	42
172	11
173	185
174	39
185	10
186	10
187	51
188	10
201	20
215	127
229	643
230	143
244	378
245	67
