Mass spectrum: 1,3-BIS(CHLORODIMETHYLSILYL)PROPANE; EI-MS
Formula: C7H18Cl2Si2
Exact mass: 228.03241
Instrument type: EI-MS
m/z	relative intensity
59	139
63	144
65	189
67	53
72	591
73	111
74	33
79	77
85	129
92	82
93	999
94	82
95	275
99	37
100	331
101	37
119	138
121	61
147	218
148	39
159	31
193	32
213	227
214	38
215	161
217	35
228	4
