Mass spectrum: 3,6-DIMETHYL-2,5-PIPERAZINEDIONE; EI-MS
Name: CYCLOALANYL-ALANINE
Formula: C6H10N2O2
Exact mass: 142.07423
Instrument type: EI-MS
m/z	relative intensity
44	999
45	26
71	248
72	19
114	61
142	203
143	17
