Mass spectrum: NONYL ACETATE; EI-MS
Formula: C11H22O2
Exact mass: 186.16198
Instrument type: EI-MS
m/z	relative intensity
15	33
18	12
27	99
28	16
29	134
39	56
40	11
41	299
42	143
43	999
44	24
53	19
54	36
55	301
56	371
57	125
58	22
61	265
67	25
68	79
69	230
70	287
71	57
73	45
82	53
83	181
84	174
85	26
96	19
97	145
98	167
99	11
101	11
116	27
126	87
