Mass spectrum: OXALIC ACID DIBUTYL ESTER; EI-MS
Name: ETHANEDIOIC ACID DIBUTYL ESTER
Formula: C10H18O4
Exact mass: 202.12051
Instrument type: EI-MS
m/z	relative intensity
27	91
28	53
29	432
30	13
31	55
39	47
40	10
41	493
42	38
43	58
44	25
55	67
56	267
57	999
58	43
73	10
