Mass spectrum: ANISYL FORMATE; EI-MS
Name: P-METHOXYBENZYL FORMATE
Formula: C9H10O3
Exact mass: 166.06299
Instrument type: EI-MS
m/z	relative intensity
15	13
27	12
29	84
31	11
38	15
39	62
41	19
50	43
51	92
52	52
53	17
62	15
63	54
64	30
65	41
66	19
76	11
77	159
78	125
79	19
89	45
90	31
91	94
92	40
94	24
105	23
106	14
107	14
109	17
119	14
120	157
121	999
122	84
135	19
137	11
166	307
167	30
