Mass spectrum: (Z,Z,Z)-9,12,15-OCTADECATRIENOIC ACID METHYL ESTER; EI-MS
Name: METHYL ALPHA-LINOLENATE
Formula: C19H32O2
Exact mass: 292.24023
Instrument type: EI-MS
m/z	relative intensity
40	34
41	639
42	60
43	243
45	34
51	27
53	175
54	119
55	520
56	38
57	56
59	165
60	15
63	12
65	90
66	111
67	647
68	191
69	189
71	25
73	21
74	128
77	237
78	110
79	999
80	427
81	503
82	109
83	70
84	15
85	30
87	125
88	15
91	274
92	62
93	465
94	206
95	547
96	67
97	33
101	18
105	70
106	45
107	177
108	384
109	117
110	19
111	30
115	23
117	28
119	39
120	31
121	143
122	44
123	44
129	20
131	18
133	29
135	94
136	67
137	19
147	16
149	78
150	40
151	12
163	27
164	20
173	27
175	13
189	10
191	24
236	37
237	14
261	30
263	15
292	65
293	27
