Mass spectrum: 1,2-DIPHENOXYETHANE; EI-MS
Formula: C14H14O2
Exact mass: 214.09938
Instrument type: EI-MS
m/z	relative intensity
27	31
28	23
38	28
39	210
40	21
43	42
50	33
51	208
55	24
63	42
64	24
65	263
66	51
77	999
78	79
79	73
91	227
92	50
93	240
94	162
103	79
107	97
119	59
120	600
121	789
122	67
142	18
214	654
215	103
