Mass spectrum: 1,1-DICHLORO-3-METHYL-1-TRIMETHYLSILYL-2-HEXANOL; EI-MS
Formula: C10H22Cl2OSi
Exact mass: 256.0817
Instrument type: EI-MS
m/z	relative intensity
42	48
43	244
45	151
55	201
57	72
59	100
70	999
71	184
73	649
74	69
75	273
83	256
89	86
91	41
93	141
95	86
101	185
105	40
110	63
112	45
123	196
125	128
163	35
173	42
177	60
178	21
179	23
185	10
205	11
220	6
