Mass spectrum: BUTYL BUTYRATE; EI-MS
Formula: C8H16O2
Exact mass: 144.11503
Instrument type: EI-MS
m/z	relative intensity
15	22
26	24
27	340
28	92
29	346
30	10
31	24
39	149
40	20
41	475
42	128
43	695
44	29
45	24
55	107
56	563
57	201
60	124
61	19
70	12
71	999
72	38
73	84
88	43
89	489
90	19
101	49
116	12
