Mass spectrum: 2-(3-FLUOROPHENYL)-4-PHENYLPYRIMIDINE; EI-MS
Formula: C16H11FN2
Exact mass: 250.09063
Instrument type: EI-MS
m/z	relative intensity
50	17
51	27
52	15
55	1
57	11
63	15
74	15
75	3
76	43
77	30
94	31
95	2
101	23
102	299
103	92
115	2
121	227
122	17
124	12
125	7
125.5	13
128	39
129	425
130	4
147	13
222	11
249	84
250	999
251	163
252	13
