Mass spectrum: 3,4,8,9-TETRAMETHOXYPTEROCARPAN; EI-MS
Formula: C19H20O6
Exact mass: 344.12599
Instrument type: EI-MS
m/z	relative intensity
106	30
115	40
135	30
163	60
178	160
191	40
297	60
298	30
299	30
329	290
330	60
343	40
344	999
345	190
