Mass spectrum: 1,2-DIMETHYLINDOLE; EI-MS
Formula: C10H11N
Exact mass: 145.08915
Instrument type: EI-MS
m/z	relative intensity
39	58
42	16
51	65
52	20
71.5	75
72.5	125
77	130
89	50
102	63
103	90
115	135
116	40
128	70
130	70
144	951
145	999
146	125
147	10
