Mass spectrum: 4-METHOXYOCT-1-ENE; EI-MS
Formula: C9H18O
Exact mass: 142.13577
Instrument type: EI-MS
m/z	relative intensity
42	350
43	96
44	25
45	668
46	14
53	60
54	38
55	161
56	11
57	16
58	30
59	95
67	54
68	13
69	999
70	61
71	58
81	17
85	299
86	14
101	933
102	58
119	14
