Mass spectrum: 2,5-DIMETHYLBENZOIC ACID METHYL ESTER; EI-MS
Formula: C10H12O2
Exact mass: 164.08373
Instrument type: EI-MS
m/z	relative intensity
45	112
50	28
51	186
52	3
53	74
54	18
55	18
59	10
62	37
63	56
65	74
71	2
73	18
74	28
75	56
77	30
78	121
79	214
80	28
89	2
91	93
92	28
93	46
102	6
103	224
104	448
105	803
106	7
110	28
116	18
117	18
119	3
120	28
132	999
133	859
134	10
135	18
147	28
149	84
150	2
157	18
163	37
164	560
165	56
