Mass spectrum: ISOPROPYL ACETATE; EI-MS
Formula: C5H10O2
Exact mass: 102.06808
Instrument type: EI-MS
m/z	relative intensity
18	20
26	10
27	25
30	2
41	60
42	80
43	999
44	2
45	20
59	100
60	30
61	42
62	10
70	25
86	230
87	1
101	10
102	20
