Mass spectrum: 3,3-DIMETHYL-2-TRIMETHYLSILOXYHEXA-1,5-DIENE; EI-MS
Formula: C11H22OSi
Exact mass: 198.14399
Instrument type: EI-MS
m/z	relative intensity
43	62
45	106
47	40
55	52
59	39
61	40
67	514
68	32
73	999
74	91
75	532
76	40
77	37
91	961
92	82
93	69
99	39
127	56
130	57
141	112
142	43
143	32
155	102
156	32
157	264
158	44
183	338
184	54
198	328
199	58
