Mass spectrum: ALPHA-YLANGENE KETONE; EI-MS
Formula: C15H22O
Exact mass: 218.16707
Instrument type: EI-MS
m/z	relative intensity
41	754
42	55
43	330
44	4
51	85
52	17
53	186
54	2
55	398
56	41
65	144
67	9
69	356
70	30
77	458
78	13
79	237
80	34
81	203
82	3
83	34
84	51
91	381
92	26
93	576
94	59
95	246
96	14
103	34
105	678
106	144
107	17
108	279
109	195
110	195
111	3
115	59
117	101
119	398
120	7
121	407
122	999
123	102
131	7
132	8
133	602
134	136
135	32
136	178
142	8
143	17
145	3
148	839
149	136
157	212
158	2
159	51
161	517
162	76
163	4
175	678
176	34
189	17
203	25
204	10
218	653
219	70
