Mass spectrum: BUTYL PARA HYDROXY BENZOATE; EI-MS
Formula: C11H14O3
Exact mass: 194.09429
Instrument type: EI-MS
m/z	relative intensity
27	24
29	10
39	87
41	37
56	14
63	21
64	17
65	139
66	14
92	14
93	191
94	21
95	14
120	13
121	999
122	89
138	653
139	89
