Mass spectrum: 2-IODOBENZOIC ACID; EI-MS
Formula: C7H5IO2
Exact mass: 247.93342
Instrument type: EI-MS
m/z	relative intensity
27	23
28	28
29	12
37	37
38	40
39	191
44	11
45	33
49	37
50	369
51	153
53	40
57	11
61	12
62	13
63	32
64	36
65	411
66	30
69	17
73	39
74	166
75	130
76	362
77	88
92	34
93	120
104	26
105	11
115	18
121	69
122	13
124	19
127	58
128	34
203	172
204	14
231	581
232	53
248	999
249	102
