Mass spectrum: TRIETHYL ORTHOFORMATE; EI-MS
Formula: C7H16O3
Exact mass: 148.10994
Instrument type: EI-MS
m/z	relative intensity
43	18
45	82
47	999
48	13
63	29
75	564
76	20
91	11
103	767
104	45
147	14
