Mass spectrum: 4-BROMO-3,5-DIPHENYLISOXAZOLE; EI-MS
Formula: C15H10BrNO
Exact mass: 298.99458
Instrument type: EI-MS
m/z	relative intensity
26	31
27	61
29	20
37	2
38	22
41	30
42	50
50	4
51	150
52	15
55	20
62	2
63	41
69	12
74	15
75	2
76	28
77	500
78	54
87	2
88	21
89	81
90	13
91	1
94.5	19
95	13
103	35
104	1
105	999
106	83
114	13
115	3
116	11
143	15
163	17
165	5
166	13
180	130
181	19
182	1
187	13
188	12
189	47
190	3
191	15
192	62
193	15
219	1
220	150
221	46
222	22
299	21
300	40
301	210
302	39
