Mass spectrum: 2,6,10-TRIMETHYLDODECANE; EI-MS
Name: FARNESANE
Formula: C15H32
Exact mass: 212.2504
Instrument type: EI-MS
m/z	relative intensity
56	233
57	999
69	147
70	768
112	93
113	124
168	8
169	20
182	31
183	82
197	35
212	47
