Mass spectrum: P-ALLYL ANISOLE; EI-MS
Formula: C10H12O
Exact mass: 148.08882
Instrument type: EI-MS
m/z	relative intensity
15	60
26	12
27	71
29	16
38	21
39	134
41	38
43	12
50	57
51	140
52	60
53	35
55	51
62	26
63	70
64	27
65	63
66	11
74	19
75	20
76	22
77	247
78	177
79	120
89	42
90	14
91	196
92	23
93	13
102	24
103	122
104	36
105	216
106	21
107	20
115	163
116	72
117	297
118	28
119	21
121	363
122	25
131	27
132	29
133	217
134	16
146	16
147	432
148	999
149	85
