Mass spectrum: N-BUTYL ISOPENTYL ETHER; EI-MS
Formula: C9H20O
Exact mass: 144.15142
Instrument type: EI-MS
m/z	relative intensity
29	114
41	275
43	261
56	27
57	999
70	123
71	189
87	141
