Mass spectrum: 1,1'-BINAPHTHYL-2,2'-BISACRYLATE; EI-MS
Formula: C26H18O4
Exact mass: 394.12051
Instrument type: EI-MS
m/z	relative intensity
55	774
56	24
105	18
115	20
120	11
130	11
170	10
186	11
200	13
202	15
224	23
225	18
226	91
227	40
228	54
229	32
230	12
232	11
235	12
237	20
239	81
240	34
241	22
255	63
256	14
257	46
258	28
264	11
266	17
267	32
268	115
269	57
282	26
283	11
285	47
286	999
287	255
288	29
323	12
340	688
341	181
342	34
394	455
395	133
396	23
