Mass spectrum: 2-ETHOXY-N-ETHOXYCARBONYL-1,2-DIHYDROQUINOLINE; EI-MS
Formula: C14H17NO3
Exact mass: 247.12084
Instrument type: EI-MS
m/z	relative intensity
129	80
130	897
131	94
143	3
146	24
158	363
159	44
174	2
202	999
203	139
204	13
247	7
248	10
