Mass spectrum: ISOPENTYL ACETATE; EI-MS
Formula: C7H14O2
Exact mass: 130.09938
Instrument type: EI-MS
m/z	relative intensity
15	45
19	100
24	65
25	52
43	999
55	325
56	25
57	2
58	10
59	10
61	85
65	3
67	515
69	25
70	85
73	2
86	30
87	205
89	30
100	2
113	20
126	20
