Mass spectrum: DIETHYLPHOSPHITE; EI-MS
Name: PHOSPHONIC ACID DIETHYL ESTER
Formula: C4H11O3P
Exact mass: 138.04458
Instrument type: EI-MS
m/z	relative intensity
15	159
19	29
26	102
27	439
28	292
29	528
30	34
31	166
42	28
43	121
44	22
45	330
47	202
65	795
66	262
67	25
81	91
82	145
83	999
91	18
92	95
93	266
94	129
95	99
109	114
110	85
111	836
123	44
137	13
139	23
