Mass spectrum: 1,1-BIS(TERT-BUTYLDIMETHYLSILYL)-2,2-BIS(TRIMETHYLSILYL)ETHYLENE; EI-MS
Formula: C20H48Si4
Exact mass: 400.28331
Instrument type: EI-MS
m/z	relative intensity
73	999
74	89
75	43
85	234
86	21
93	30
99	53
115	323
116	45
117	35
131	184
132	30
133	16
155	388
156	74
157	33
173	133
174	27
175	12
197	381
198	82
199	36
213	108
214	31
215	17
227	12
255	42
256	12
269	17
270	22
285	192
286	59
287	28
327	13
343	27
344	11
400	2
