Mass spectrum: ACETALDEHYDE ISOAMYL ISOBUTYL ACETAL; EI-MS
Name: ACETALDEHYDE 3-METHYLBUTYL 2-METHYLPROPYLACETAL
Formula: C11H24O2
Exact mass: 188.17763
Instrument type: EI-MS
m/z	relative intensity
15	21
26	13
27	171
29	256
31	68
33	20
39	137
41	445
42	125
43	816
44	53
45	357
46	10
53	20
55	185
56	122
57	968
58	61
59	12
69	11
70	63
71	999
72	56
83	14
99	12
100	12
101	462
102	25
115	555
116	38
117	26
173	81
