Mass spectrum: CIS-5-EICOSENOIC ACID TRIMETHYLSILYL ESTER; EI-MS
Formula: C23H46O2Si
Exact mass: 382.32671
Instrument type: EI-MS
m/z	relative intensity
54	105
55	283
67	134
69	10
73	672
75	451
81	128
83	9
84	105
96	188
117	999
118	10
129	131
132	72
137	61
152	6
169	64
193	59
199	59
250	5
367	59
