Mass spectrum: BUTYL BENZOATE; EI-MS
Formula: C11H14O2
Exact mass: 178.09938
Instrument type: EI-MS
m/z	relative intensity
27	68
28	21
29	83
31	1
39	41
41	99
43	17
50	5
51	174
52	12
55	38
56	27
57	23
74	12
75	11
76	3
77	461
78	42
79	77
105	999
106	89
107	10
122	199
123	75
124	60
135	16
178	53
179	14
