Mass spectrum: BENZOIC ACID BENZYL ESTER; EI-MS
Name: BENZYL BENZOATE
Formula: C14H12O2
Exact mass: 212.08373
Instrument type: EI-MS
m/z	relative intensity
65	20
77	89
78	12
79	36
89	18
90	51
91	351
92	26
105	999
106	87
107	68
123	11
167	54
178	12
194	71
195	11
212	298
213	45
