Mass spectrum: 1-(4-METHOXYPHENYL)-1,3-BIS(METHYLTHIO)-4-TRIMETHYLSILYLBUTANE; EI-MS
Formula: C16H28OS2Si
Exact mass: 328.13508
Instrument type: EI-MS
m/z	relative intensity
45	147
47	139
59	98
73	999
74	108
75	102
77	155
91	200
94	141
105	222
115	141
121	112
128	104
129	180
134	143
144	149
145	109
146	95
147	548
159	314
160	313
161	825
162	99
167	926
168	102
233	158
265	290
328	169
