Mass spectrum: 1,2-DICHLOROBENZENE; EI-MS
Formula: C6H4Cl2
Exact mass: 145.96901
Instrument type: EI-MS
m/z	relative intensity
51	43
55	80
56	31
61	22
73	101
74	147
75	262
76	31
84	35
85	36
109	23
110	58
111	419
112	49
113	135
128	23
145	28
146	999
147	80
148	609
149	59
150	98
