Mass spectrum: NORBORNEOL; EI-MS
Name: ENDO-BICYCLO(2.2.1)HEPTAN-2-OL
Formula: C7H12O
Exact mass: 112.08882
Instrument type: EI-MS
m/z	relative intensity
27	19
29	51
31	13
39	19
40	23
41	138
42	44
43	87
44	40
45	55
53	69
54	34
55	155
56	91
57	238
58	33
65	18
66	678
67	665
68	584
69	71
70	128
71	55
77	34
78	15
79	816
80	62
81	118
82	16
83	173
84	52
91	15
93	62
94	999
95	87
97	60
111	12
112	18
