Mass spectrum: TRIDECANETHIOL; EI-MS
Formula: C13H28S
Exact mass: 216.19117
Instrument type: EI-MS
m/z	relative intensity
27	240
28	41
29	460
30	11
35	24
39	127
40	28
41	978
42	244
43	956
44	27
45	44
46	20
47	285
48	13
49	11
53	61
54	95
55	999
56	578
57	634
58	30
59	21
60	38
61	120
62	11
65	10
67	110
68	295
69	747
70	535
71	237
72	14
73	15
81	38
82	275
83	660
84	325
85	95
87	27
88	34
89	233
90	13
91	10
95	13
96	103
97	464
98	208
99	26
101	11
103	20
110	33
111	216
112	107
113	16
124	16
125	87
126	56
139	21
140	28
153	17
154	71
155	10
182	102
183	20
215	19
216	217
217	32
218	12
