Mass spectrum: ACETALDEHYDE CYANOHYDRIN; EI-MS
Formula: C3H5NO
Exact mass: 71.03711
Instrument type: EI-MS
m/z	relative intensity
22	18
13	46
14	160
15	346
16	42
25	27
26	233
27	999
29	856
30	6
40	7
41	34
42	113
43	302
44	512
45	30
56	53
70	4
