Mass spectrum: BENZOPHENONE; EI-MS
Name: DIPHENYL KETONE
Formula: C13H10O
Exact mass: 182.07316
Instrument type: EI-MS
m/z	relative intensity
27	12
39	10
44	20
50	51
51	185
74	19
75	22
76	40
77	624
78	36
105	999
106	73
181	39
182	317
183	40
