Mass spectrum: BENZOIC ACID; EI-MS
Formula: C7H6O2
Exact mass: 122.03678
Instrument type: EI-MS
m/z	relative intensity
27	32
37	27
38	41
39	65
44	20
45	22
49	22
50	177
51	310
52	54
53	16
63	22
65	43
66	33
73	22
74	78
75	43
76	65
77	869
78	98
91	27
94	38
104	22
105	999
106	92
120	65
121	54
122	683
123	64
