Mass spectrum: BENZYL BENZOATE; EI-MS
Formula: C14H12O2
Exact mass: 212.08373
Instrument type: EI-MS
m/z	relative intensity
51	110
65	110
77	240
90	70
91	450
105	999
106	70
107	70
167	30
194	40
212	270
