Mass spectrum: DIETHYLHYDRAZONE PROPIONALDEHYDE; EI-MS
Name: PROPIONALDEHYDE DIETHYLHYDRAZONE
Formula: C7H16N2
Exact mass: 128.13135
Instrument type: EI-MS
m/z	relative intensity
28	222
29	289
30	445
31	1
39	51
40	20
41	149
42	19
43	102
44	180
45	8
54	2
55	16
56	222
57	31
58	33
59	24
69	9
70	44
71	2
72	40
73	9
83	7
84	1
85	76
86	19
87	14
97	1
99	55
100	7
113	999
114	9
115	5
127	31
128	355
129	38
