Mass spectrum: ACETONE; EI-MS
Name: 2-PROPANONE
Formula: C3H6O
Exact mass: 58.04186
Instrument type: EI-MS
m/z	relative intensity
14	31
15	232
26	31
27	55
28	28
29	44
39	39
41	50
42	63
43	999
44	37
55	35
56	17
57	59
58	300
59	14
