Mass spectrum: 3-ETHYLTETRAHYDROFURAN; EI-MS
Formula: C6H12O
Exact mass: 100.08882
Instrument type: EI-MS
m/z	relative intensity
27	33
29	100
31	17
39	5
40	71
41	256
42	999
43	14
44	60
45	100
53	154
54	5
55	798
56	50
57	50
65	1
66	25
67	362
68	528
69	8
70	857
71	58
72	27
80	1
81	23
82	77
83	15
98	4
99	81
100	270
101	17
