Mass spectrum: PARA-METHOXYTOLUENE; EI-MS
Name: PARA-METHYLANISOLE
Formula: C8H10O
Exact mass: 122.07316
Instrument type: EI-MS
m/z	relative intensity
15	17
27	53
28	13
38	17
39	96
41	16
50	48
51	104
52	58
53	54
61	14
62	18
63	48
64	15
65	67
75	11
77	327
78	80
79	232
80	16
89	25
90	20
91	231
92	81
93	16
107	333
108	30
121	501
122	999
123	85
