Mass spectrum: ISOPENTYLAMINE; EI-MS
Name: ISOPENTYLAMINE
Formula: C5H13N
Exact mass: 87.1048
Instrument type: EI-MS
m/z	relative intensity
30	999
31	22
39	58
41	66
42	42
43	35
44	45
45	20
55	34
58	12
70	66
87	44
