Mass spectrum: 2-NAPHTHYL ISOBUTYL ETHER; EI-MS
Name: 2-NAPHTHYL 2-METHYLPROPYL ETHER
Formula: C14H16O
Exact mass: 200.12012
Instrument type: EI-MS
m/z	relative intensity
27	22
29	66
39	34
41	68
57	30
63	18
65	11
75	10
77	16
89	20
114	11
115	218
116	52
126	22
127	69
128	15
143	13
144	999
145	125
200	200
201	27
