Mass spectrum: 1-ACETOXY-3-(N-ACETYL-2-ACETOXYETHYLAMINO)-5-METHOXY-2,6-DIMETHYLBENZENE; EI-MS
Formula: C17H23NO6
Exact mass: 337.15254
Instrument type: EI-MS
m/z	relative intensity
41	60
43	895
45	45
47	20
48	75
49	70
57	70
68	7
74	30
77	45
79	30
83	76
85	495
87	999
88	60
91	5
123	30
128	315
150	30
166	5
167	90
178	180
179	60
180	54
181	60
192	105
193	180
194	5
209	90
210	45
220	30
222	17
235	240
236	60
251	35
252	11
253	120
277	90
294	45
295	22
296	30
337	390
338	70
