Mass spectrum: DIMETHYL-2-METHYL SUCCINATE; EI-MS
Formula: C7H12O4
Exact mass: 160.07356
Instrument type: EI-MS
m/z	relative intensity
15	335
27	52
29	95
31	22
39	66
40	23
41	179
42	105
43	61
45	24
55	66
56	21
58	22
59	999
60	34
69	136
74	56
87	111
100	171
101	204
128	213
129	355
130	27
