Mass spectrum: 3-NONANOL; EI-MS
Formula: C9H20O
Exact mass: 144.15142
Instrument type: EI-MS
m/z	relative intensity
27	135
28	25
29	199
31	192
39	78
40	12
41	276
42	53
43	211
44	46
45	20
53	16
55	665
56	64
57	112
58	99
59	999
60	27
67	10
69	122
70	36
71	19
83	13
84	13
97	427
98	32
115	183
116	12
126	21
