Mass spectrum: 4-N,N-BIS(TRIMETHYLSILYL)ANISIDINE; EI-MS
Formula: C13H25NOSi2
Exact mass: 267.14747
Instrument type: EI-MS
m/z	relative intensity
43	17
45	58
59	35
73	227
74	21
75	17
130	11
164	34
179	16
180	14
206	34
220	11
221	26
222	17
236	28
237	75
238	21
250	11
252	999
253	245
254	99
255	15
267	288
268	72
269	27
