Mass spectrum: 2-(4-FLUOROPHENYL)PYRIMIDINE; EI-MS
Formula: C10H7FN2
Exact mass: 174.05933
Instrument type: EI-MS
m/z	relative intensity
46	5
50	6
52	26
53	1
56	6
57	16
61	5
63	1
63.5	6
68	11
74	14
75	3
76	7
77	35
79	5
86	1
87	71
87.5	10
94	83
95	4
96	7
99	5
102	6
120	1
121	636
122	83
123	7
126	1
146	22
147	73
148	10
173	10
174	999
175	91
