Mass spectrum: TRIMESIC ACID TRIMETHYL ESTER; EI-MS
Name: 1,3,5-BENZENETRICARBOXYLIC ACID TRIMETHYLESTER
Formula: C12H12O6
Exact mass: 252.06339
Instrument type: EI-MS
m/z	relative intensity
15	136
29	12
51	11
59	51
63	27
74	90
75	196
76	28
77	21
91	11
95	17
102	68
103	33
119	35
120	10
133	75
134	93
135	19
147	119
148	12
161	90
162	49
163	20
165	16
177	11
178	31
193	211
194	30
207	44
221	999
222	133
223	17
251	23
252	248
253	36
