Mass spectrum: ISOEUGENOL; EI-MS
Formula: C10H12O2
Exact mass: 164.08373
Instrument type: EI-MS
m/z	relative intensity
43	12
55	104
77	69
78	2
79	20
91	43
93	22
103	9
104	66
105	22
107	20
121	8
131	107
132	37
133	86
134	1
137	31
147	22
149	248
150	3
163	26
164	999
165	113
166	8
