Mass spectrum: 4-VINYLGUAIACOL; EI-MS
Name: 2-METHOXY-4-VINYLPHENOL
Formula: C9H10O2
Exact mass: 150.06808
Instrument type: EI-MS
m/z	relative intensity
15	58
26	18
27	58
29	25
31	13
38	19
39	101
42	11
50	54
51	109
52	69
53	82
54	12
55	52
62	29
63	75
64	24
65	52
66	11
69	11
74	17
75	40
76	16
77	314
78	90
79	94
81	14
89	47
90	12
91	42
92	10
103	14
105	19
107	362
108	30
118	11
135	682
136	49
149	14
150	999
151	97
152	14
