Mass spectrum: 2-AMINOPYRIMIDINE; EI-MS
Formula: C4H5N3
Exact mass: 95.04835
Instrument type: EI-MS
m/z	relative intensity
26	39
27	24
28	105
38	14
39	26
40	115
41	189
42	247
43	84
51	20
52	58
53	44
66	18
67	95
68	319
69	17
94	44
95	999
96	154
