Mass spectrum: 1,1,1,2,2,3,3-HEPTAMETHYLTRISILANE; EI-MS
Formula: C7H22Si3
Exact mass: 190.10293
Instrument type: EI-MS
m/z	relative intensity
43	64
45	118
57	10
59	123
60	11
69	17
71	12
73	999
74	85
75	48
85	27
87	15
99	36
100	11
101	154
102	119
103	31
104	11
113	12
115	96
116	943
117	362
118	103
119	23
129	31
131	593
132	103
133	50
145	13
159	20
173	35
174	23
175	205
176	44
177	25
189	18
190	93
191	24
192	12
