Mass spectrum: 1-OCTANOL; EI-MS
Name: OCTYL ALCOHOL
Formula: C8H18O
Exact mass: 130.13577
Instrument type: EI-MS
m/z	relative intensity
15	13
27	241
28	111
29	368
31	233
39	160
40	31
41	816
42	496
43	702
44	67
45	42
53	38
54	49
55	869
56	999
57	418
58	23
67	57
68	160
69	625
70	595
71	110
73	20
81	16
82	74
83	325
84	439
85	49
97	28
112	14
