Mass spectrum: TETRAFLUORODIAZIRIDINE; EI-MS
Formula: CF4N2
Exact mass: 115.99976
Instrument type: EI-MS
m/z	relative intensity
19	30
20	30
31	340
33	11
45	60
50	999
52	30
64	2
69	270
83	180
