Mass spectrum: 2-ISOBUTYL-4,5-DIMETHYLTHIAZOLE; EI-MS
Formula: C9H15NS
Exact mass: 169.09252
Instrument type: EI-MS
m/z	relative intensity
41	20
42	20
43	40
53	40
59	29
68	50
70	20
71	171
85	111
86	321
87	111
94	20
112	32
126	583
127	999
128	250
129	150
154	372
155	33
168	124
169	282
170	59
171	10
