Mass spectrum: M-BROMOBENZALDEHYDE; EI-MS
Formula: C7H5BrO
Exact mass: 183.95238
Instrument type: EI-MS
m/z	relative intensity
40	63
43	15
44	24
45	2
48	21
49	142
50	999
51	56
52	42
53	42
60	24
61	7
62	72
63	45
65	24
72	2
73	145
74	485
75	560
76	59
77	587
78	54
79	45
80	2
81	42
82	15
84	15
85	2
86	27
87	15
89	15
91	1
92	12
93	12
103	15
104	5
105	24
106	15
107	18
116	1
117	15
118	12
119	15
128	2
129	24
130	18
131	24
155	48
156	235
157	458
158	69
183	78
184	681
185	801
186	702
187	66
