Mass spectrum: ISOCROTYLHYDRAZONE METHYLETHYLKETONE; EI-MS
Name: 2-BUTANONE (1-METHYL-2-PROPENYL)HYDRAZONE
Formula: C8H16N2
Exact mass: 140.13135
Instrument type: EI-MS
m/z	relative intensity
27	185
28	130
29	333
30	14
31	10
39	117
40	22
41	24
42	999
43	82
44	223
45	1
51	11
52	10
53	48
54	7
55	333
56	278
57	139
58	2
62.5	12
68	185
69	72
70	24
71	50
72	22
82	22
83	2
84	32
85	259
86	43
96	1
97	22
98	15
111	67
112	1
113	146
114	11
124	17
125	89
126	89
139	20
140	482
141	9
142	11
