Mass spectrum: 3-BUTYRYLAMINO-5-FLUOROURACIL; EI-MS
Formula: C8H10FN3O3
Exact mass: 215.07062
Instrument type: EI-MS
m/z	relative intensity
39	90
40	10
41	200
42	1
43	600
44	100
45	90
55	1
58	100
70	40
71	999
72	1
73	30
74	80
87	10
88	0
101	30
102	180
103	10
130	0
145	150
146	70
215	240
216	80
