Mass spectrum: PROPIONALDEHYDE; EI-MS
Formula: C3H6O
Exact mass: 58.04186
Instrument type: EI-MS
m/z	relative intensity
13	11
14	36
15	76
26	31
27	205
28	650
29	991
30	999
31	83
32	42
33	10
37	28
38	20
39	52
40	14
41	38
42	27
43	11
53	16
55	27
57	223
58	787
59	48
