Mass spectrum: 1-OCTADEC-CIS-9-ENOYLPYRROLIDINE; EI-MS
Name: N-OLEOYLPYRROLIDINE
Formula: C22H41NO
Exact mass: 335.31881
Instrument type: EI-MS
m/z	relative intensity
95	13
97	11
98	194
99	21
112	21
113	999
114	76
126	496
127	107
140	59
141	18
154	23
168	48
169	10
180	16
182	66
183	11
194	12
196	18
208	18
222	25
236	40
250	36
264	17
278	11
292	11
306	7
320	1
335	57
336	16
