Mass spectrum: 1,1-DIMETHYL-2-(1-METHYLBUTYL)HYDRAZINE; EI-MS
Formula: C7H18N2
Exact mass: 130.147
Instrument type: EI-MS
m/z	relative intensity
27	44
28	34
29	33
30	4
39	17
40	4
41	39
42	8
43	93
44	204
45	139
46	2
55	8
56	7
57	120
58	3
59	999
60	148
61	6
70	1
71	14
72	7
73	9
85	1
86	14
87	222
88	14
101	0
115	37
116	6
130	278
131	36
