Mass spectrum: 3-METHYLPENTANOL; EI-MS
Formula: C6H14O
Exact mass: 102.10447
Instrument type: EI-MS
m/z	relative intensity
26	12
27	177
28	129
29	35
31	296
32	14
39	129
40	2
41	627
42	193
43	681
44	4
45	106
46	42
51	10
53	3
54	23
55	834
56	999
57	35
58	11
59	12
67	11
69	78
70	49
71	45
73	14
83	2
84	213
85	25
135	10
