Mass spectrum: ETHYL 3,4,5-TRIMETHYLBENZOATE; EI-MS
Formula: C12H16O2
Exact mass: 192.11503
Instrument type: EI-MS
m/z	relative intensity
26	10
27	68
29	107
30	1
39	40
41	69
43	25
44	1
51	24
53	25
63	15
65	4
77	88
78	38
79	37
91	17
92	17
93	20
102	11
103	7
104	46
105	53
115	47
116	1
117	63
118	29
119	254
120	4
133	28
146	15
147	999
148	15
149	23
163	14
164	231
165	3
177	72
191	17
192	516
193	70
