Mass spectrum: DL-LEUCYLGLYCYLGLYCINE; EI-MS
Formula: C10H19N3O4
Exact mass: 245.13756
Instrument type: EI-MS
m/z	relative intensity
18	14
27	18
28	67
29	22
30	286
41	44
42	35
43	104
44	194
55	18
56	33
57	21
69	10
70	29
72	10
76	16
84	25
85	40
86	999
87	60
113	14
114	51
171	14
246	33
