Mass spectrum: BETA-AMINO PROPIONITRILE; EI-MS
Formula: C3H6N2
Exact mass: 70.0531
Instrument type: EI-MS
m/z	relative intensity
15	37
27	30
28	191
30	999
39	26
40	46
41	61
42	139
