Mass spectrum: (S)-N-TERT-BUTOXYCARBONYL-2-FORMYLPYRROLIDINE; EI-MS
Name: (S)-N-(TERT-BUTOXYCARBONYL)PROLINAL
Formula: C10H17NO3
Exact mass: 199.12084
Instrument type: EI-MS
m/z	relative intensity
55	12
56	26
57	353
58	11
70	892
71	17
83	10
115	999
116	66
126	27
127	13
144	32
170	433
171	38
199	7
200	2
