Mass spectrum: BENZOTRIFLUORIDE; EI-MS
Name: ALPHA,ALPHA,ALPHA-TRIFLUOROTOLUENE
Formula: C7H5F3
Exact mass: 146.03433
Instrument type: EI-MS
m/z	relative intensity
50	60
51	93
57	14
63	17
69	24
70	14
73	20
74	27
75	55
76	16
77	113
95	35
96	285
97	20
99	14
125	30
126	24
127	351
128	27
145	410
146	999
147	78
