Mass spectrum: 2-TRIMETHYLSILOXYGERANYL ACETATE; EI-MS
Name: 3,7-DIMETHYL-2-TRIMETHYLSILOXY-3,6-OCTADIENYL ACETATE
Formula: C15H28O3Si
Exact mass: 284.18077
Instrument type: EI-MS
m/z	relative intensity
43	62
69	52
73	267
75	85
79	71
82	112
93	321
105	54
117	250
119	248
121	758
122	83
131	999
132	124
133	102
134	480
135	98
155	83
175	160
181	61
194	203
209	87
211	894
212	164
215	53
224	84
228	71
229	13
284	6
