Mass spectrum: ACRYLONITRILE; EI-MS
Name: 2-PROPENENITRILE
Formula: C3H3N
Exact mass: 53.02655
Instrument type: EI-MS
m/z	relative intensity
24	20
25	55
26	718
27	99
28	36
36	15
37	32
38	40
39	14
50	67
51	290
52	677
53	999
54	35
