Mass spectrum: 3-NONANONE; EI-MS
Formula: C9H18O
Exact mass: 142.13577
Instrument type: EI-MS
m/z	relative intensity
15	11
26	19
27	319
28	33
29	628
30	12
39	134
40	10
41	304
42	66
43	999
44	28
53	24
55	102
56	34
57	824
58	24
68	11
69	18
71	13
72	648
73	96
85	250
86	18
95	23
99	14
113	356
114	22
142	24
