Mass spectrum: ISOBORNEOL; EI-MS
Name: EXO-BORNEOL
Formula: C10H18O
Exact mass: 154.13577
Instrument type: EI-MS
m/z	relative intensity
40	16
42	44
54	33
57	11
59	41
67	37
68	14
69	60
70	20
71	53
72	51
79	12
80	12
81	49
82	97
83	56
84	50
85	11
92	92
93	188
94	21
95	999
96	103
97	17
98	10
107	25
108	36
109	27
110	335
111	85
121	144
122	15
123	14
136	260
138	26
139	146
140	16
154	26
