Mass spectrum: 7-OXO-8-(PHENYLTHIO)BICYCLO(4.2.0)OCTANE; EI-MS
Formula: C14H16OS
Exact mass: 232.09219
Instrument type: EI-MS
m/z	relative intensity
28	100
41	100
45	55
53	3
54	25
55	92
65	20
66	5
67	194
77	79
78	48
79	17
80	29
81	40
85	43
91	7
93	72
94	324
95	999
96	6
105	76
109	69
110	158
111	3
115	42
116	43
121	105
122	11
123	128
124	20
126	20
127	3
129	22
134	21
135	44
136	9
147	50
149	28
150	78
175	3
190	28
203	25
204	824
205	13
206	73
232	297
233	50
234	25
