Mass spectrum: METHYL ACETOACETATE; EI-MS
Formula: C5H8O3
Exact mass: 116.04734
Instrument type: EI-MS
m/z	relative intensity
27	12
29	23
31	20
42	39
43	999
44	25
57	25
59	102
69	51
74	121
84	29
85	127
86	18
88	39
101	68
116	148
117	12
