Mass spectrum: MYRISTOLEIC ACID TRIMETHYLSILYL ESTER; EI-MS
Name: TRIMETHYLSILYL 9-TETRADECENOATE
Formula: C17H34O2Si
Exact mass: 298.23281
Instrument type: EI-MS
m/z	relative intensity
45	123
55	504
67	201
68	11
69	181
73	999
74	91
75	83
81	229
82	123
83	106
84	14
95	188
96	175
98	188
109	11
117	884
129	506
131	155
145	13
166	106
283	192
284	48
