Mass spectrum: 3-HEPTYL ISOBUTYRATE; EI-MS
Name: 1-ETHYLPENTYL 2-METHYLPROPIONATE
Formula: C11H22O2
Exact mass: 186.16198
Instrument type: EI-MS
m/z	relative intensity
27	150
28	17
29	149
31	15
39	74
41	279
42	70
43	731
44	39
45	10
54	12
55	97
56	125
57	526
58	25
59	50
69	90
70	56
71	999
72	47
73	11
85	17
89	70
98	134
99	29
129	69
157	26
