Mass spectrum: 2,5-DIPHENYL-OXAZOLE; EI-MS
Formula: C15H11NO
Exact mass: 221.08406
Instrument type: EI-MS
m/z	relative intensity
222	170
221	999
193	100
166	370
165	620
116	300
105	150
90	310
89	770
77	770
64	120
63	450
62	160
51	530
50	200
39	290
