Mass spectrum: TETRAMETHYLAMMONIUM IODIDE; EI-MS
Formula: C4H12IN
Exact mass: 201.00144
Instrument type: EI-MS
m/z	relative intensity
15	230
30	130
42	180
44	0
58	810
59	380
60	20
74	1
127	230
128	30
142	999
200	0
254	5
275	0
