Mass spectrum: ETHYL HEXANOATE; EI-MS
Formula: C8H16O2
Exact mass: 144.11503
Instrument type: EI-MS
m/z	relative intensity
15	28
26	40
27	471
29	791
30	20
31	24
39	194
41	419
42	239
43	776
44	24
45	228
53	24
54	10
55	207
56	32
57	29
59	13
60	462
61	263
69	76
70	255
71	268
72	11
73	282
74	45
83	11
87	74
88	999
89	50
97	17
98	10
99	535
100	26
101	259
102	26
115	78
117	35
