Mass spectrum: DIMETHYLHYDRAZONE DIETHYLKETONE; EI-MS
Name: 3-PENTANONE DIMETHYLHYDRAZONE
Formula: C7H16N2
Exact mass: 128.13135
Instrument type: EI-MS
m/z	relative intensity
29	143
30	54
39	45
40	1
41	94
42	285
43	178
44	999
45	940
46	83
52	7
53	1
54	92
55	81
56	323
57	10
58	87
59	24
67	12
68	4
69	14
70	23
71	7
72	2
82	56
83	26
84	178
85	6
97	7
99	64
113	27
127	1
128	428
129	61
