Mass spectrum: 4-CHLOROPHENOL; EI-MS
Formula: C6H5ClO
Exact mass: 128.00289
Instrument type: EI-MS
m/z	relative intensity
51	36
53	68
60	21
61	70
62	105
63	216
64	275
65	556
66	43
72	31
73	94
74	48
75	51
92	47
93	42
98	24
99	112
100	171
101	43
102	56
127	322
128	999
129	143
130	307
131	22
