Mass spectrum: HEPTYL ALCOHOL; EI-MS
Formula: C7H16O
Exact mass: 116.12012
Instrument type: EI-MS
m/z	relative intensity
15	19
26	16
27	243
28	71
29	302
31	287
39	150
40	30
41	656
42	478
43	693
44	25
45	36
53	33
54	56
55	637
56	933
57	227
67	17
68	147
69	515
70	999
71	63
73	20
83	80
85	11
97	11
98	116
