Mass spectrum: BUTYL2-FURYLPROPIONATE; EI-MS
Formula: C11H16O3
Exact mass: 196.10994
Instrument type: EI-MS
m/z	relative intensity
29	20
41	58
43	101
55	30
56	10
57	52
58	10
67	42
79	18
80	11
81	50
84	228
85	210
86	49
87	52
95	18
96	30
97	999
98	874
99	341
100	162
101	21
110	19
111	383
112	112
113	62
114	20
115	10
119	35
120	20
121	20
123	38
136	21
137	11
139	217
140	42
141	11
153	144
154	61
155	10
167	79
168	39
196	538
197	163
198	63
