Mass spectrum: HEXADECANEDIOIC ACID BIS(TRIMETHYLSILYL) ESTER; EI-MS
Name: DI(TRIMETHYLSILYL) HEXADECANEDIOATE
Formula: C22H46O4Si2
Exact mass: 430.29346
Instrument type: EI-MS
m/z	relative intensity
45	98
55	250
67	93
69	14
73	999
75	797
81	117
83	11
95	114
117	279
129	247
147	13
149	151
204	335
217	321
299	15
399	47
415	412
416	138
417	45
