Mass spectrum: 4-METHOXY-4-PHENYL-3-TRIMETHYLSILYL-1,2-BUTADIENE; EI-MS
Formula: C14H20OSi
Exact mass: 232.12834
Instrument type: EI-MS
m/z	relative intensity
59	36
73	199
74	17
75	12
77	124
78	13
89	706
90	61
91	131
92	11
93	16
96	13
105	31
106	13
122	999
123	62
127	21
128	350
129	41
158	18
159	33
185	37
200	13
201	11
217	32
232	2
