Mass spectrum: FUMARIC ACID DIMETHYL ESTER (1,1,1,8,8,8-D6); EI-MS
Formula: C6H8O4
Exact mass: 144.04226
Instrument type: EI-MS
m/z	relative intensity
26	84
30	38
41	28
42	16
44	35
53	140
54	73
62	251
81	29
82	30
88	325
89	20
104	10
106	10
115	21
116	999
117	79
118	247
119	14
150	6
