Mass spectrum: 6-ISOPROPYL-3-METHYL-2-METHYLENECYCLOHEXANONE; EI-MS
Formula: C11H18O
Exact mass: 166.13577
Instrument type: EI-MS
m/z	relative intensity
42	371
53	167
54	96
55	327
67	283
68	162
69	168
77	78
79	100
81	263
82	123
83	96
91	102
93	69
95	417
96	131
109	294
110	102
123	242
124	999
125	94
151	257
161	292
162	71
163	113
166	152
