Mass spectrum: 5-METHYL-2-PYRAZOLINE; EI-MS
Formula: C4H8N2
Exact mass: 84.06875
Instrument type: EI-MS
m/z	relative intensity
26	43
27	157
28	215
29	9
30	25
38	17
39	86
40	4
41	110
42	761
43	86
44	2
50	13
51	15
52	11
53	2
54	16
55	28
56	67
68	1
69	999
70	48
83	72
84	48
85	52
