Mass spectrum: BIS(2-CHLOROETHYL) ETHER; EI-MS
Formula: C4H8Cl2O
Exact mass: 141.99522
Instrument type: EI-MS
m/z	relative intensity
44	62
45	39
49	55
62	40
63	843
65	270
83	35
93	999
94	32
95	327
108	33
129	4
142	35
