Mass spectrum: BUTANE (2-D1); EI-MS
Formula: C4H10
Exact mass: 58.07825
Instrument type: EI-MS
m/z	relative intensity
27	101
28	258
29	365
30	23
39	10
41	206
42	273
43	95
44	999
45	34
56	15
57	6
58	50
59	277
60	12
