Mass spectrum: 2-(TRIMETHYLSILYLMETHYL)BENZYL TRIMETHYLSILYL ETHER; EI-MS
Formula: C14H26OSi2
Exact mass: 266.15222
Instrument type: EI-MS
m/z	relative intensity
43	29
45	85
73	460
74	38
75	235
77	37
78	39
103	43
104	999
105	119
147	51
161	31
163	30
176	20
177	21
266	2
267	0
