Mass spectrum: DOPA; EI-MS
Name: 3-(3,4-DIHYDROXYPHENYL)-L-ALANINE
Formula: C9H11NO4
Exact mass: 197.06881
Instrument type: EI-MS
m/z	relative intensity
74	28
75	17
77	20
105	1
107	17
123	999
124	159
125	1
136	13
152	48
197	158
198	38
