Mass spectrum: 2-AMINOPYRIMIDINE 1-OXIDE; EI-MS
Formula: C4H5N3O
Exact mass: 111.04326
Instrument type: EI-MS
m/z	relative intensity
44	41
45	16
47.5	13
51	2
52	60
53	75
54	44
55	1
55.5	13
57	16
66	33
67	11
68	176
69	28
70	142
77	1
81	17
84	17
94	22
95	25
96	17
111	999
112	63
