Mass spectrum: 3-CHLOROPHENYL ACETATE; EI-MS
Formula: C8H7ClO2
Exact mass: 170.01346
Instrument type: EI-MS
m/z	relative intensity
38	42
39	51
41	30
42	3
43	714
44	39
50	33
57	3
62	30
63	97
64	66
65	8
69	30
73	39
74	27
75	7
92	27
99	63
100	30
101	3
111	30
113	27
128	999
129	6
130	300
139	60
168	69
170	23
172	69
