Mass spectrum: 2,6-BIS(TERT-BUTYL)-4-METHYLPHENOL; EI-MS
Formula: C15H24O
Exact mass: 220.18272
Instrument type: EI-MS
m/z	relative intensity
18	34
29	96
39	23
41	173
43	33
53	18
55	99
57	403
65	14
67	92
69	28
77	38
79	31
80	13
81	118
91	66
95	64
105	83
115	37
116	12
117	13
119	46
121	42
128	24
129	29
130	11
131	51
133	27
135	10
141	15
142	14
143	11
145	167
146	18
147	19
149	34
157	9
159	5
161	63
163	30
175	19
177	76
189	53
203	30
205	999
206	158
207	4
218	14
220	251
221	40
