Mass spectrum: 1,1-ETHYLENEDIOXY-5-HYDROXY-5-METHYL-4-PHENYLSULFOXYHEXANE; EI-MS
Formula: C15H22O4S
Exact mass: 298.12388
Instrument type: EI-MS
m/z	relative intensity
15	30
17	17
18	673
28	999
29	27
30	16
31	15
32	14
39	16
41	93
43	423
44	2
45	314
51	20
55	50
56	3
57	229
58	45
59	110
61	2
65	12
66	134
67	17
69	20
70	10
71	74
72	10
73	62
74	62
77	84
78	58
79	2
81	15
82	50
83	98
84	2
85	224
86	102
87	24
88	4
91	72
92	13
93	15
94	2
95	72
97	22
99	70
100	2
101	715
102	16
103	10
108	2
109	39
110	357
111	377
112	2
113	107
114	34
115	30
116	1
117	79
118	12
125	50
126	6
127	16
128	20
129	37
135	13
136	633
137	37
138	32
139	3
149	24
151	52
154	13
155	8
157	19
171	21
173	156
174	4
178	16
191	11
220	10
222	2
223	80
224	80
225	21
226	1
280	13
