Mass spectrum: ETHYL 4-PHENOXYPHENYLACETATE; EI-MS
Formula: C16H16O3
Exact mass: 256.10994
Instrument type: EI-MS
m/z	relative intensity
27	17
29	52
39	18
43	1
44	45
50	11
51	61
55	1
57	18
63	16
65	10
76	1
77	138
78	22
89	48
90	3
91	50
92	33
105	24
107	6
115	15
119	13
127	10
128	1
129	14
149	14
153	21
154	2
155	43
164	10
181	15
183	999
184	149
185	12
256	474
257	9
258	10
