Mass spectrum: PARA-METHOXYPHENYLACETONE; EI-MS
Formula: C10H12O2
Exact mass: 164.08373
Instrument type: EI-MS
m/z	relative intensity
50	14
51	38
52	25
53	15
55	23
57	40
58	20
59	21
60	21
63	17
65	23
67	13
69	10
73	23
74	15
75	14
77	84
78	66
79	14
81	16
89	18
90	12
91	60
92	10
105	15
106	13
107	14
121	999
122	103
135	24
145	11
164	134
165	15
