Mass spectrum: 1-PHENOXYMETHYL-5-FLUOROURACIL; EI-MS
Formula: C11H9FN2O3
Exact mass: 236.05972
Instrument type: EI-MS
m/z	relative intensity
38	40
39	120
40	30
41	0
44	50
45	130
50	40
51	1
52	100
62	20
63	50
64	0
65	130
66	70
70	40
71	1
72	120
77	200
78	40
79	1
87	30
93	50
94	620
95	1
100	760
101	90
107	110
114	1
141	30
142	120
143	999
236	5
237	140
