Mass spectrum: (2R*,3R*)-2-METHYL-3-((1R*)-1,5-DIMETHYLHEXYL)CYCLOPENTANONE; EI-MS
Formula: C14H26O
Exact mass: 210.19837
Instrument type: EI-MS
m/z	relative intensity
42	87
55	88
56	43
57	13
68	10
69	109
70	35
71	9
79	13
81	26
82	56
83	7
84	89
85	20
93	12
95	3
96	42
97	999
98	117
99	2
107	24
108	44
109	21
110	2
111	25
121	24
122	16
123	3
124	11
125	83
126	32
137	1
139	25
140	19
195	13
210	8
211	15
