Mass spectrum: 1,8-EPOXYMENTHANE; EI-MS
Name: EUCALYPTOL
Formula: C10H18O
Exact mass: 154.13577
Instrument type: EI-MS
m/z	relative intensity
55	234
59	173
68	404
71	497
81	547
84	466
93	644
96	322
108	430
111	280
121	88
126	95
136	102
139	250
154	307
155	31
