Mass spectrum: TRIMETHYL(3-UNDECENYL)SILANE; EI-MS
Formula: C14H30Si
Exact mass: 226.21168
Instrument type: EI-MS
m/z	relative intensity
41	32
43	23
45	35
55	22
59	86
73	999
74	87
75	38
99	65
113	19
127	30
211	23
226	31
