Mass spectrum: 3-HEXANOYL-5-PHENYL-2-ISOXAZOLINE; EI-MS
Formula: C15H19NO2
Exact mass: 245.14158
Instrument type: EI-MS
m/z	relative intensity
39	148
41	285
42	64
43	564
51	154
55	140
65	57
71	350
76	257
77	158
78	59
91	198
99	494
103	161
104	835
105	194
115	201
116	71
117	87
120	94
128	157
129	209
130	127
146	56
172	58
188	83
189	82
228	427
229	83
244	241
245	999
246	167
