Mass spectrum: 1-ACETYL-4-(4-NITROPHENYL)-3-(2-PYRIDYL)-2-PYRAZOLINE; EI-MS
Formula: C16H14N4O3
Exact mass: 310.10659
Instrument type: EI-MS
m/z	relative intensity
78	999
79	71
81	26
83	5
85	40
97	41
105	22
193	2
221	23
267	193
268	226
310	57
