Mass spectrum: OCTADECANEDIOIC ACID BIS(TRIMETHYLSILYL) ESTER; EI-MS
Name: DI(TRIMETHYLSILYL) OCTADECANEDIOATE
Formula: C24H50O4Si2
Exact mass: 458.32476
Instrument type: EI-MS
m/z	relative intensity
45	119
47	105
55	359
67	11
69	154
73	943
75	999
77	15
81	140
83	133
95	218
97	11
117	323
129	281
147	169
149	18
204	570
217	429
327	161
443	53
444	169
445	77
