Mass spectrum: PROPYL 5-METHOXY-3-OXOPENTANOATE; EI-MS
Formula: C9H16O4
Exact mass: 188.10486
Instrument type: EI-MS
m/z	relative intensity
41	107
42	90
43	500
44	3
45	999
55	236
56	24
57	2
58	138
59	138
60	97
61	4
69	78
70	24
71	26
72	3
83	24
84	24
85	194
86	3
87	792
88	24
96	38
97	5
98	95
100	708
101	19
145	4
156	26
170	43
173	19
188	17
