Mass spectrum: P-AMINOACETOPHENONE; EI-MS
Formula: C8H9NO
Exact mass: 135.06841
Instrument type: EI-MS
m/z	relative intensity
43	18
65	274
66	45
79	13
92	531
93	39
106	15
120	999
121	138
122	13
135	697
136	68
