Mass spectrum: TRANS-1,4-DICHLORO-2-BUTENE; EI-MS
Formula: C4H6Cl2
Exact mass: 123.98466
Instrument type: EI-MS
m/z	relative intensity
49	65
50	51
51	106
52	25
53	402
54	106
57	14
61	25
62	236
63	31
64	77
73	11
75	999
76	36
77	329
78	11
87	21
88	131
89	416
90	61
91	120
93	31
95	17
124	173
126	115
128	19
