Mass spectrum: 1-PENTYLAMINE; EI-MS
Name: AMYLAMINE
Formula: C5H13N
Exact mass: 87.1048
Instrument type: EI-MS
m/z	relative intensity
15	11
18	32
27	53
28	5
29	25
30	999
31	18
39	4
41	38
42	27
43	16
44	3
45	32
55	10
87	55
