Mass spectrum: 1-BENZOYL-5-FLUOROURACIL; EI-MS
Formula: C11H7FN2O3
Exact mass: 234.04407
Instrument type: EI-MS
m/z	relative intensity
50	90
51	200
60	50
62	0
74	30
75	20
76	40
77	5
78	80
87	30
105	999
106	2
107	20
130	50
163	4
191	0
234	50
235	20
