Mass spectrum: 2,3,3,4,4,6,6,7,7,8-DECAMETHYL-5-OXA-3,4,6,7-TETRASILANONANE; EI-MS
Formula: C14H38OSi4
Exact mass: 334.19997
Instrument type: EI-MS
m/z	relative intensity
45	15
59	81
73	314
74	28
75	13
85	16
101	19
103	20
117	94
118	14
119	15
129	14
131	48
133	101
134	14
143	16
144	71
145	55
146	13
147	137
148	21
149	11
159	63
160	24
161	31
174	38
175	139
176	41
177	26
189	33
190	13
191	999
192	233
193	132
194	21
203	15
217	18
219	21
233	243
234	65
235	71
236	18
249	85
250	27
251	17
277	26
291	112
292	38
293	22
319	36
320	14
334	55
335	21
336	12
