Mass spectrum: PENTANE; EI-MS
Formula: C5H12
Exact mass: 72.0939
Instrument type: EI-MS
m/z	relative intensity
26	16
27	219
28	34
29	19
39	106
40	18
41	373
42	61
43	999
44	27
55	28
56	2
57	145
72	140
