Mass spectrum: 2-CHLOROBENZOIC ACID METHYL ESTER; EI-MS
Formula: C8H7ClO2
Exact mass: 170.01346
Instrument type: EI-MS
m/z	relative intensity
50	127
51	77
71	22
74	5
75	259
76	40
77	36
111	34
113	77
139	999
140	54
141	34
170	281
172	54
