Mass spectrum: 1,5,7-TRIMETHYLINDAN; EI-MS
Formula: C12H16
Exact mass: 160.1252
Instrument type: EI-MS
m/z	relative intensity
15	30
27	75
28	19
39	74
41	26
51	48
53	23
63	34
65	31
77	43
79	15
91	44
103	15
105	36
115	91
128	105
129	90
145	999
159	18
160	192
161	25
