Mass spectrum: HEXYL CELLOSOLVE; EI-MS
Name: 2-HEXYLOXYETHANOL
Formula: C8H18O2
Exact mass: 146.13068
Instrument type: EI-MS
m/z	relative intensity
27	24
29	71
31	24
41	124
42	41
43	999
44	41
45	365
55	75
56	116
57	114
63	129
69	20
75	47
83	79
84	50
85	272
86	17
115	14
146	2
