Mass spectrum: TRIETHOXYOCTYLSILANE; EI-MS
Formula: C14H32O3Si
Exact mass: 276.21207
Instrument type: EI-MS
m/z	relative intensity
63	40
73	13
79	42
91	36
107	29
119	158
120	15
135	43
149	39
163	999
164	126
165	49
231	18
276	19
