Mass spectrum: ETHYL BENZOATE; EI-MS
Formula: C9H10O2
Exact mass: 150.06808
Instrument type: EI-MS
m/z	relative intensity
29	19
45	20
51	12
77	233
78	26
91	14
105	999
106	100
107	10
122	393
123	35
135	14
149	18
150	327
151	33
