Mass spectrum: 3-NITROPHENYLACETIC ACID TRIMETHYLSILYL ESTER; EI-MS
Formula: C11H15NO4Si
Exact mass: 253.07703
Instrument type: EI-MS
m/z	relative intensity
43	17
44	34
45	69
47	5
51	17
58	6
59	6
61	3
62	6
63	38
64	10
73	999
74	114
75	512
76	48
77	4
78	13
82	41
89	83
90	8
91	6
96	6
117	24
136	1
141	13
209	221
210	27
211	1
238	204
239	31
240	6
