Mass spectrum: DI-ISOPROPYLMETHYL(METHYLAMINO)SILANE; EI-MS
Formula: C8H21NSi
Exact mass: 159.14433
Instrument type: EI-MS
m/z	relative intensity
42	39
43	35
45	64
58	83
59	148
60	24
61	21
72	12
73	62
74	246
75	88
76	16
85	24
88	640
89	52
90	23
100	13
101	12
102	12
103	33
116	999
117	109
118	42
144	16
159	48
