Mass spectrum: N-BUTYL-2,4-DINITROBENZENAMINE; EI-MS
Formula: C10H13N3O4
Exact mass: 239.09061
Instrument type: EI-MS
m/z	relative intensity
43	20
45	11
46	17
50	31
51	89
52	53
53	26
55	11
62	38
63	67
64	39
65	94
66	32
67	16
71	55
74	20
75	52
76	83
77	159
78	139
79	41
80	45
89	15
90	38
91	55
92	105
93	47
98	17
102	19
103	30
104	166
105	81
106	36
108	43
110	19
111	17
113	11
116	20
117	43
118	55
119	52
120	86
121	43
122	118
123	22
130	34
131	22
132	18
133	19
134	60
136	26
137	18
138	89
145	16
146	34
147	38
149	44
150	151
151	31
152	19
153	18
158	15
159	17
160	19
161	15
163	36
164	36
166	169
167	36
174	17
175	23
176	31
177	38
179	46
180	95
181	16
183	29
184	17
185	12
191	18
192	17
193	16
196	999
197	96
198	26
204	15
207	17
209	31
223	19
239	163
240	21
