Mass spectrum: ALPHA-CUBEBENE; EI-MS
Formula: C15H24
Exact mass: 204.1878
Instrument type: EI-MS
m/z	relative intensity
26	10
27	95
28	10
29	8
31	5
39	101
40	11
41	31
42	30
43	91
50	5
51	4
52	17
53	88
54	8
55	21
56	56
57	22
58	5
63	2
64	8
65	72
66	13
67	8
68	11
69	142
70	32
71	1
75	8
76	6
77	167
78	5
79	133
80	55
81	300
82	0
83	13
89	13
90	12
91	35
92	197
93	300
94	46
95	4
96	5
97	5
101	5
102	1
103	45
104	33
105	999
106	12
107	155
108	56
109	20
115	6
116	30
117	85
118	52
119	9
120	300
121	51
122	23
123	1
127	16
128	35
129	35
130	2
131	50
132	16
133	98
134	3
135	11
136	12
141	10
142	1
143	8
144	5
145	30
146	1
147	37
148	11
149	8
150	1
159	16
160	20
161	985
162	14
163	11
189	15
204	208
205	36
