Mass spectrum: 7-TERT-BUTYL-7-(2,4,6-TRIISOPROPYLPHENYL)-2,3,5,6-DIBENZO-7-SILANORBORNADIENE; EI-MS
Formula: C33H42Si
Exact mass: 466.30558
Instrument type: EI-MS
m/z	relative intensity
178	201
179	32
189	23
217	85
218	23
229	16
230	43
231	999
232	295
233	74
234	11
245	25
287	12
288	48
289	14
409	51
410	20
466	68
467	28
