Mass spectrum: ALLYL LEVULINATE; EI-MS
Formula: C8H12O3
Exact mass: 156.07864
Instrument type: EI-MS
m/z	relative intensity
15	57
26	31
27	111
29	43
38	16
39	174
41	485
42	63
43	999
44	21
45	11
54	10
55	111
56	51
57	73
58	54
60	61
68	39
69	11
71	93
72	29
73	20
99	661
100	50
101	15
114	12
141	13
