Mass spectrum: 7-TERT-BUTYL-3,3-DIMETHYL-1-INDANONE; EI-MS
Formula: C15H20O
Exact mass: 216.15142
Instrument type: EI-MS
m/z	relative intensity
14	33
15	57
28	187
29	5
39	61
41	95
51	33
57	4
64	29
65	26
77	32
79	7
91	54
93	27
115	100
117	4
128	65
129	41
143	34
145	3
158	23
159	64
171	32
173	4
185	30
186	62
201	999
202	16
216	170
217	29
