Mass spectrum: 4'-AMINO-5,7-DIMETHYLFLAVANONE; EI-MS
Name: 2-(4-AMINOPHENYL)-5,7-DIMETHYLCHROMAN-4-ONE
Formula: C17H17NO2
Exact mass: 267.12593
Instrument type: EI-MS
m/z	relative intensity
65	40
77	32
91	148
92	2
93	51
106	679
107	41
117	4
118	190
119	999
120	143
148	9
149	131
265.5	21
266.5	304
267.5	41
