Mass spectrum: GAMMA-TERPINENE; EI-MS
Name: 1-METHYL-4-(1-METHYLETHYL)-1,4-CYCLOHEXADIENE
Formula: C10H16
Exact mass: 136.1252
Instrument type: EI-MS
m/z	relative intensity
41	12
43	115
55	10
67	11
77	124
78	15
79	115
80	68
81	15
91	209
92	253
93	999
94	98
105	70
106	15
107	79
108	21
119	19
121	323
122	36
136	480
137	54
