Mass spectrum: 7-ISOPROPENYL-4A-METHYL-1-DECAHYDRONAPHTHYLIDENE; EI-MS
Formula: C15H24
Exact mass: 204.1878
Instrument type: EI-MS
m/z	relative intensity
39	408
41	999
42	75
43	251
44	15
51	89
53	449
54	84
55	584
56	64
57	243
65	189
66	88
67	705
68	289
69	290
70	38
71	96
77	396
78	124
79	782
80	344
81	713
82	323
83	70
85	24
91	541
92	163
93	926
94	328
95	519
96	99
97	79
99	77
105	836
106	234
107	849
108	496
109	267
119	404
120	158
121	632
122	270
123	238
133	424
134	160
135	271
136	86
147	349
148	200
149	128
161	445
162	162
175	175
176	78
189	413
204	449
205	85
