Mass spectrum: ISOBUTYL SALICYLATE; EI-MS
Name: ISOBUTYL ORTHO HYDROXY BENZOATE
Formula: C11H14O3
Exact mass: 194.09429
Instrument type: EI-MS
m/z	relative intensity
27	33
29	142
38	11
39	128
41	166
43	10
53	20
55	10
56	23
57	104
63	33
64	42
65	142
92	172
93	86
120	999
121	333
122	29
138	289
139	25
194	64
195	9
