Mass spectrum: 2-METHYL-5-(TETRAHYDR0PYRAN-2-YLOXYMETHYL)-2-TETRADECEN-5-OLIDE; EI-MS
Name: 3-METHYL-6-NONYL-6-(PERHYDROPYRAN-2-YLOXYMETHYL)-5,6-DIHYDRO-2H-PYRAN-2-ONE
Formula: C21H36O4
Exact mass: 352.26136
Instrument type: EI-MS
m/z	relative intensity
29	211
31	29
39	59
41	314
42	41
43	399
53	55
54	87
55	226
56	51
57	273
67	147
68	23
69	72
71	120
79	28
81	83
82	161
83	62
84	46
85	999
86	62
93	30
95	116
96	27
97	33
98	23
107	2
109	42
111	40
123	66
124	6
125	65
126	42
137	69
138	36
141	32
155	217
156	27
224	36
236	427
237	260
238	51
267	94
268	22
