Mass spectrum: 4-METHYL-1-PHENYL-2-PENTANOL; EI-MS
Formula: C12H18O
Exact mass: 178.13577
Instrument type: EI-MS
m/z	relative intensity
27	32
29	25
39	37
41	84
43	146
44	10
45	74
51	19
57	21
63	12
65	64
69	134
71	11
77	28
87	13
89	12
91	278
92	999
93	79
103	33
121	35
