Mass spectrum: 4-(3-(PARA-BUTOXYPHENOXY)PROPYL)MORPHOLINE; EI-MS
Formula: C17H27NO3
Exact mass: 293.19909
Instrument type: EI-MS
m/z	relative intensity
39	35
41	174
42	210
43	261
44	21
55	17
56	90
57	50
70	148
84	10
98	42
100	999
101	59
109	11
110	25
113	14
128	659
129	57
293	35
294	5
