Mass spectrum: 4-DODECYLOXY-2-HYDROXY-BENZOPHENONE; EI-MS
Formula: C25H34O3
Exact mass: 382.25079
Instrument type: EI-MS
m/z	relative intensity
27	43
28	45
29	216
39	22
41	381
42	43
43	493
55	283
56	27
57	207
69	114
71	64
77	144
81	29
83	31
105	453
106	23
107	29
108	24
136	47
137	393
138	27
145	44
185	30
186	40
197	47
212	101
213	999
214	853
215	195
227	70
255	30
380	26
381	142
382	463
383	116
