Mass spectrum: 3-AMINOPROPYL METHYL ETHER; EI-MS
Name: 3-METHOXY-1-PROPANAMINE
Formula: C4H11NO
Exact mass: 89.08406
Instrument type: EI-MS
m/z	relative intensity
15	52
18	56
27	28
28	80
29	39
30	999
31	32
33	23
39	12
41	30
42	29
43	15
44	35
45	156
56	102
57	60
58	11
59	26
71	21
72	234
73	11
74	56
89	14
