Mass spectrum: 2-METHYL-2,4-PENTANEDIOL; EI-MS
Formula: C6H14O2
Exact mass: 118.09938
Instrument type: EI-MS
m/z	relative intensity
15	42
19	11
27	67
28	13
29	61
31	133
39	70
40	15
41	215
42	138
43	784
44	42
45	202
55	30
56	266
57	132
58	36
59	999
60	32
61	93
85	93
103	60
