Mass spectrum: 4-HYDROXYBENZOIC ACID; EI-MS
Formula: C7H6O3
Exact mass: 138.03169
Instrument type: EI-MS
m/z	relative intensity
26	10
27	23
29	24
37	29
38	57
39	180
40	11
45	47
50	34
51	33
53	55
54	36
60	30
62	57
63	109
64	45
65	249
66	36
74	21
75	12
81	43
92	35
93	228
94	18
109	11
110	24
121	999
122	76
138	869
139	71
