Mass spectrum: 2-NITROBENZYL ALCOHOL; EI-MS
Formula: C7H7NO3
Exact mass: 153.04259
Instrument type: EI-MS
m/z	relative intensity
30	70
31	30
37	10
38	23
39	120
40	13
41	44
46	10
47	12
50	112
51	287
52	214
53	105
54	6
55	18
61	9
62	25
63	77
64	129
65	143
66	23
67	21
74	33
75	29
76	70
77	999
78	233
79	751
80	85
81	13
89	34
90	36
91	408
94	16
95	15
104	40
105	235
106	38
107	28
108	24
119	12
120	24
121	21
135	125
136	20
