Mass spectrum: ETHYL PROPIONATE; EI-MS
Formula: C5H10O2
Exact mass: 102.06808
Instrument type: EI-MS
m/z	relative intensity
14	11
15	42
26	57
27	259
28	243
29	985
30	55
31	151
32	35
41	19
42	26
43	116
44	9
45	251
46	24
55	24
56	64
57	999
58	56
59	21
73	153
74	270
75	300
76	11
84	27
87	45
101	12
102	332
103	51
