Mass spectrum: METHYL PROPIONATE; EI-MS
Formula: C4H8O2
Exact mass: 88.05243
Instrument type: EI-MS
m/z	relative intensity
15	138
17	31
18	126
26	71
27	222
28	129
29	696
30	26
31	76
32	29
42	52
43	36
45	82
55	46
56	46
57	999
58	47
59	320
87	36
88	384
89	21
