Mass spectrum: CIS-3-HEXENYL 2-OXOPROPANOATE; EI-MS
Name: CIS-3-HEXENYL PYRUVATE
Formula: C9H14O3
Exact mass: 170.09429
Instrument type: EI-MS
m/z	relative intensity
14	30
15	76
26	16
27	15
29	91
38	12
39	199
41	59
42	57
43	999
44	26
51	2
52	14
53	67
54	53
55	91
56	36
65	16
67	328
68	3
69	15
79	12
81	112
82	41
83	81
99	22
