Mass spectrum: 2-(1,2-DIMETHYLPROPYL)-1,1-DIMETHYLHYDRAZINE; EI-MS
Formula: C7H18N2
Exact mass: 130.147
Instrument type: EI-MS
m/z	relative intensity
27	49
28	38
29	40
30	4
31	9
39	27
40	9
41	6
42	140
43	198
44	546
45	21
46	47
55	21
56	13
57	1
58	73
59	999
60	276
61	2
70	29
71	40
72	17
85	1
86	29
87	964
88	102
99	2
114	18
115	27
130	437
131	64
