Mass spectrum: 1,2,4,4-TETRACHLOROBUTADIENE; EI-MS
Formula: C4H2Cl4
Exact mass: 189.89106
Instrument type: EI-MS
m/z	relative intensity
24	7
25	25
26	29
27	2
35	56
36	154
37	96
38	8
39	19
47	71
48	38
49	17
50	231
59	11
60	135
61	7
62	48
63	40
77	82
78	7
79	29
84	212
85	193
86	7
87	58
95	58
96	58
97	4
98	19
107	79
109	71
111	2
117	27
118	11
119	462
120	14
121	308
122	77
123	61
130	3
132	31
134	11
143	44
145	0
147	13
155	999
156	55
157	96
158	48
159	308
160	15
161	3
189	13
190	387
191	34
192	5
193	29
194	241
195	13
196	50
