Mass spectrum: 3-METHYLPYRIDINE; EI-MS
Name: BETA METHYL PYRIDINE
Formula: C6H7N
Exact mass: 93.05785
Instrument type: EI-MS
m/z	relative intensity
26	17
27	31
28	26
37	27
38	62
39	252
40	132
41	33
50	26
51	49
52	26
53	25
54	27
61	15
62	26
63	61
64	34
65	276
66	408
67	101
78	33
91	13
92	328
93	999
94	74
