Mass spectrum: 4-HYDROXY-2-BUTANONE; EI-MS
Name: HYDROXYETHYL METHYL KETONE
Formula: C4H8O2
Exact mass: 88.05243
Instrument type: EI-MS
m/z	relative intensity
14	17
15	93
26	24
27	107
28	67
29	74
30	12
31	133
39	34
41	53
42	103
43	999
44	37
45	80
55	144
57	40
58	50
61	107
69	20
70	194
71	36
73	57
74	13
87	13
88	48
