Mass spectrum: 3,4-DICHLOROPHENOL; EI-MS
Formula: C6H4Cl2O
Exact mass: 161.96392
Instrument type: EI-MS
m/z	relative intensity
51	23
53	64
60	41
61	98
62	204
63	324
64	56
71	22
72	83
73	136
74	62
75	52
81	83
82	53
83	28
91	21
97	63
98	256
99	337
100	98
101	123
107	23
109	21
126	77
127	37
128	28
133	51
134	74
135	36
136	48
161	36
162	999
163	87
164	623
165	45
166	98
