Mass spectrum: 2,2,7,7-TETRAMETHYL-4-(TRIMETHYLSTANNYLMETHYL)CYCLOHEPT-4-ENONE; EI-MS
Formula: C15H28OSn
Exact mass: 344.11621
Instrument type: EI-MS
m/z	relative intensity
41	114
55	60
67	69
79	98
93	60
95	46
107	81
133	50
135	84
150	52
161	455
162	256
163	671
164	279
165	999
167	138
169	182
325	67
326	42
327	111
328	59
329	163
340	97
341	65
342	165
343	87
344	219
