Mass spectrum: 11-METHYLTRIDECANOIC ACID TRIMETHYLSILYL ESTER; EI-MS
Formula: C17H36O2Si
Exact mass: 300.24846
Instrument type: EI-MS
m/z	relative intensity
43	241
55	197
57	80
69	13
73	999
74	78
75	687
117	64
129	230
131	111
132	243
145	15
285	243
286	54
