Mass spectrum: BUTYL ISODECYL PHTHALATE; EI-MS
Formula: C22H34O4
Exact mass: 362.24571
Instrument type: EI-MS
m/z	relative intensity
50	15
51	16
54	24
55	72
56	65
65	24
76	25
77	3
93	29
104	30
105	63
106	1
121	22
122	20
123	46
149	999
150	95
151	12
167	10
205	10
206	15
223	122
224	16
278	5
279	12
