Mass spectrum: HOMOVERATRILAMINE; EI-MS
Formula: C10H15NO2
Exact mass: 181.11028
Instrument type: EI-MS
m/z	relative intensity
15	38
28	50
30	999
39	81
51	72
52	25
53	23
63	28
65	88
66	23
77	59
78	70
79	47
89	23
90	45
91	66
94	26
105	39
106	69
107	94
108	41
109	54
121	36
122	20
123	28
135	25
137	160
151	420
152	846
153	88
165	28
181	155
182	37
