Mass spectrum: 2-ETHYL IMIDAZOLINE; EI-MS
Formula: C5H10N2
Exact mass: 98.0844
Instrument type: EI-MS
m/z	relative intensity
99	110
98	500
97	310
96	220
95	290
83	100
82	200
81	310
70	140
69	999
68	200
67	100
58	80
57	120
56	200
55	220
54	730
53	90
52	130
44	160
43	210
42	410
41	520
40	280
39	250
38	100
