Mass spectrum: (+)-ALPHA-PHENYLETHYLAMINE; EI-MS
Formula: C8H11N
Exact mass: 121.08915
Instrument type: EI-MS
m/z	relative intensity
42	178
43	102
44	238
50	44
51	117
52	44
53	160
54	12
59	12
60	23
63	22
65	19
74	17
75	14
76	18
77	238
78	87
79	427
80	34
91	17
102	13
103	55
104	97
105	44
106	999
107	166
118	12
120	147
121	19
