Mass spectrum: PHENYLETHYL SALICYLATE; EI-MS
Formula: C15H14O3
Exact mass: 242.09429
Instrument type: EI-MS
m/z	relative intensity
27	27
38	16
39	138
50	19
51	65
52	15
53	25
62	12
63	62
64	49
65	216
66	14
77	145
78	63
79	123
89	12
91	128
92	134
93	87
103	88
104	844
105	999
106	85
120	168
121	323
122	23
138	85
242	61
