Mass spectrum: ALPHA-CEDRENE; EI-MS
Formula: C15H24
Exact mass: 204.1878
Instrument type: EI-MS
m/z	relative intensity
27	60
29	61
39	75
40	1
41	280
42	22
43	58
51	2
52	10
53	76
54	10
55	15
56	120
57	50
63	8
64	1
65	46
66	12
67	66
68	3
69	235
70	52
71	13
75	1
77	147
78	32
79	102
80	0
81	83
82	35
83	20
84	1
89	10
90	6
91	198
92	2
93	505
94	78
95	46
96	1
97	15
103	18
104	10
105	31
106	47
107	65
108	45
109	1
110	10
112	5
115	25
116	1
117	27
118	25
119	999
120	16
121	150
122	40
123	26
124	0
128	10
129	10
130	5
131	2
132	6
133	58
134	37
135	3
136	75
137	8
145	8
146	1
147	90
148	43
149	11
160	1
161	200
162	37
163	5
175	1
189	32
190	5
204	187
205	33
