Mass spectrum: P-PROPYLANISOLE; EI-MS
Formula: C10H14O
Exact mass: 150.10447
Instrument type: EI-MS
m/z	relative intensity
15	18
27	46
29	29
39	45
41	23
50	14
51	46
52	25
53	14
63	22
64	11
65	49
77	90
78	99
79	16
89	17
90	12
91	73
121	999
122	81
150	182
151	17
