Mass spectrum: 3-METHYL-2-PENTANOL; EI-MS
Formula: C6H14O
Exact mass: 102.10447
Instrument type: EI-MS
m/z	relative intensity
15	13
27	95
28	17
29	105
31	19
39	56
41	148
42	14
43	78
44	105
45	999
46	27
55	37
56	164
57	54
69	47
87	31
