Mass spectrum: (6-METHYLHEPTYL)BENZENE; EI-MS
Formula: C14H22
Exact mass: 190.17215
Instrument type: EI-MS
m/z	relative intensity
57	41
92	434
93	75
105	8
119	32
123	106
124	106
190	999
191	138
