Mass spectrum: TRANS-(4'-NITRO-N,N,O)-AZOXYBENZENE; EI-MS
Formula: C12H9N3O3
Exact mass: 243.06439
Instrument type: EI-MS
m/z	relative intensity
27	19
29	16
30	87
38	1
39	60
44	47
50	58
51	19
52	35
62	17
63	80
64	7
65	55
74	13
75	45
76	6
77	999
78	99
79	20
80	5
89	10
90	26
91	82
92	7
93	11
105	158
106	18
107	6
108	18
115	28
122	16
139	1
168	14
227	17
242	17
243	31
244	42
