Mass spectrum: 1-BROMO-4-METHOXYBENZENE; EI-MS
Formula: C7H7BrO
Exact mass: 185.96803
Instrument type: EI-MS
m/z	relative intensity
50	124
51	34
61	27
62	63
63	183
64	121
74	70
75	90
76	70
77	131
79	42
92	86
117	30
119	31
143	255
145	277
155	29
157	34
171	416
172	34
173	431
174	27
186	999
187	79
188	988
189	79
