Mass spectrum: 6-ETHYLQUINOLINE; EI-MS
Formula: C11H11N
Exact mass: 157.08915
Instrument type: EI-MS
m/z	relative intensity
27	44
29	50
39	62
50	11
51	26
63	99
74	73
75	10
76	93
77	13
78	10
88	66
89	37
101	33
102	40
115	73
116	66
127	43
128	60
129	73
141	99
142	999
143	99
156	133
157	530
158	88
159	10
