Mass spectrum: 4-METHYLBICYCLO(3.2.2)NONA-3,6-DIEN-2-ONE; EI-MS
Formula: C10H12O
Exact mass: 148.08882
Instrument type: EI-MS
m/z	relative intensity
69	34
78	35
80	32
89	4
90	92
105	228
106	129
115	7
119	51
120	39
129	38
130	27
131	35
133	868
134	74
147	11
148	999
149	180
