Mass spectrum: ALLYLBENZENE; EI-MS
Formula: C9H10
Exact mass: 118.07825
Instrument type: EI-MS
m/z	relative intensity
39	210
40	30
41	50
42	2
43	15
49	15
50	100
51	16
52	50
53	30
61	20
62	6
63	120
64	30
65	180
66	2
67	10
73	10
74	50
75	3
76	30
77	90
78	90
79	2
85	10
86	10
87	20
88	1
89	90
90	50
91	470
92	6
94	20
103	130
104	30
105	2
115	320
116	90
117	999
118	78
119	90
