Mass spectrum: 4-PYRIDYL ACETATE; EI-MS
Formula: C7H7NO2
Exact mass: 137.04768
Instrument type: EI-MS
m/z	relative intensity
38	90
39	270
40	230
41	17
42	160
43	999
52	50
53	1
66	50
67	820
68	100
69	0
95	720
96	210
108	30
109	1
137	620
138	60
