Mass spectrum: 10-PHENYL-9-ANTHRALDEHYDE; EI-MS
Formula: C21H14O
Exact mass: 282.10447
Instrument type: EI-MS
m/z	relative intensity
50	28
51	35
52	6
53	0
61	2
62	11
63	32
64	0
65	3
73	3
74	22
75	0
76	13
77	16
78	2
81	0
82	1
83	2
84	2
85	0
86	13
87	32
88	21
89	1
93	1
94	2
95	3
96	0
98	13
99	26
100	56
101	3
105	2
106	5
107	4
111	1
112	83
113	201
114	20
118	0
119	16
120	12
124	36
125	16
126	276
127	28
131	4
132	1
140	6
141	33
149	8
150	3
151	15
152	7
161	5
162	0
163	11
164	2
165	2
173	0
174	23
175	16
176	35
177	2
178	5
185	3
186	5
187	2
188	5
189	7
198	12
199	1
200	36
201	12
202	16
204	1
205	192
206	30
211	12
212	0
213	20
214	3
215	7
222	1
223	16
224	71
225	44
226	9
227	22
236	3
237	17
238	1
239	41
240	8
250	250
251	1
252	658
253	566
254	322
255	3
261	2
263	5
264	2
265	0
281	349
282	999
283	234
284	24
