Mass spectrum: 5-BROMO-4-NITROINDOLINE; EI-MS
Formula: C8H7BrN2O2
Exact mass: 241.96909
Instrument type: EI-MS
m/z	relative intensity
46	11
50	15
51	26
52	2
53	23
54	82
55	794
56	25
57	999
58	27
58.5	11
59	1
60	192
61	50
62	21
63	6
64	15
65	20
66	14
67	25
68	146
69	781
70	187
71	32
72	12
73	233
74	18
75	1
76	14
77	29
78	23
79	4
80	29
81	256
82	210
83	52
84	237
85	233
86	29
87	4
88	18
89	182
90	146
91	3
93	23
94	21
95	155
96	18
97	364
98	146
99	32
101	2
104	14
105	29
107	15
108	1
109	70
110	62
111	119
112	3
113	20
114	15
115	78
116	23
117	274
118	15
119	11
121	2
123	46
124	27
125	36
126	1
127	23
129	49
132	15
133	3
135	12
137	27
138	18
139	2
141	11
143	11
149	12
152	2
162	18
169	26
194	11
195	3
196	174
197	41
198	183
199	1
212	11
236	27
237	11
241	2
242	740
243	76
244	699
245	30
