Mass spectrum: METHYLISOEUGENOL; EI-MS
Formula: C11H14O2
Exact mass: 178.09938
Instrument type: EI-MS
m/z	relative intensity
40	30
41	90
42	10
43	20
50	70
51	145
52	35
53	70
54	10
55	50
57	70
62	60
63	125
64	40
65	140
66	40
67	20
68	10
69	20
74	40
75	20
76	55
77	155
78	75
79	165
80	20
89	80
90	40
91	395
92	85
93	20
94	20
95	55
102	55
103	280
104	70
105	130
106	20
107	390
108	40
109	15
115	130
116	30
117	65
118	25
119	70
120	60
121	20
131	65
132	20
133	40
134	10
135	170
136	20
145	20
146	30
147	110
148	20
149	20
150	10
151	40
161	10
162	30
163	435
164	60
165	25
166	25
177	30
178	999
179	125
180	20
