Mass spectrum: BUTYLMETHYLSILANE (SI-D2); EI-MS
Formula: C5H14Si
Exact mass: 102.08648
Instrument type: EI-MS
m/z	relative intensity
29	15
41	34
42	11
43	1
44	17
45	200
46	261
47	19
48	21
55	20
56	91
57	11
58	28
59	105
60	105
61	5
71	11
72	127
73	102
74	6
75	999
76	112
77	40
85	1
86	21
89	16
100	13
101	13
102	48
103	12
104	63
105	8
