Mass spectrum: (2-ACETOXYETHYL)TRIMETHYLAMMONIUM BROMIDE; EI-MS
Formula: C7H16BrNO2
Exact mass: 225.03644
Instrument type: EI-MS
m/z	relative intensity
15	229
30	56
43	197
58	999
71	294
79	12
80	8
87	82
94	147
106	6
131	10
146	0
