Mass spectrum: DIBENZYL ETHER; EI-MS
Formula: C14H14O
Exact mass: 198.10447
Instrument type: EI-MS
m/z	relative intensity
27	17
29	10
39	76
41	27
44	15
50	24
51	79
52	22
53	11
63	33
64	13
65	157
66	12
77	119
78	21
79	165
80	13
89	31
90	22
91	722
92	999
93	75
105	22
107	147
108	15
120	12
167	10
