Mass spectrum: ETHYL PARA AMINO BENZOATE; EI-MS
Name: PARA AMINO BENZOIC ACID ETHYL ESTER
Formula: C9H11NO2
Exact mass: 165.07898
Instrument type: EI-MS
m/z	relative intensity
27	19
29	18
39	71
41	21
52	11
63	27
64	28
65	234
91	24
92	296
93	43
119	34
120	999
121	99
137	169
138	8
165	253
166	22
