Mass spectrum: 1-SEC-BUTYL-1-ETHYLHYDRAZINE; EI-MS
Formula: C6H16N2
Exact mass: 116.13135
Instrument type: EI-MS
m/z	relative intensity
27	93
28	44
29	185
30	7
31	37
39	35
41	117
42	24
43	122
44	114
45	283
54	1
55	20
56	78
57	70
58	5
59	174
60	24
70	78
71	1
72	16
73	12
84	20
85	2
87	999
88	57
101	122
102	1
116	250
117	24
