Mass spectrum: ETHYL ACRYLATE; EI-MS
Name: PROPENOIC ACID ETHYL ESTER
Formula: C5H8O2
Exact mass: 100.05243
Instrument type: EI-MS
m/z	relative intensity
15	13
26	46
27	269
28	76
29	184
31	32
41	20
43	58
44	33
45	118
54	41
55	999
56	120
57	38
58	49
72	13
73	82
82	32
85	38
99	57
100	9
