Mass spectrum: PARAACETALDEHYDE; EI-MS
Name: PARALDEHYDE
Formula: C6H12O3
Exact mass: 132.07864
Instrument type: EI-MS
m/z	relative intensity
15	36
27	36
29	72
42	25
43	512
44	33
45	999
46	22
87	93
89	161
117	81
131	32
