Mass spectrum: METHYL2-FUROATE; EI-MS
Name: 2-FURANCARBOXYLIC ACID METHYL ESTER
Formula: C6H6O3
Exact mass: 126.03169
Instrument type: EI-MS
m/z	relative intensity
27	31
29	21
38	20
39	438
40	31
41	10
42	10
45	11
51	10
53	20
55	10
59	23
66	11
67	52
68	126
69	11
95	999
96	124
97	11
126	470
127	42
