Mass spectrum: METHYL SULFIDE; EI-MS
Formula: C2H6S
Exact mass: 62.01902
Instrument type: EI-MS
m/z	relative intensity
15	273
16	5
17	3
18	9
26	11
27	186
28	66
29	9
32	46
33	20
34	17
35	273
36	3
37	12
44	88
45	758
46	463
47	999
48	40
49	44
54	4
56	6
57	29
58	37
59	33
60	5
61	297
62	831
63	65
64	39
65	2
