Mass spectrum: DIBENZYLAMINE; EI-MS
Formula: C14H15N
Exact mass: 197.12045
Instrument type: EI-MS
m/z	relative intensity
13	19
14	36
15	126
16	11
17	35
18	60
26	9
27	34
28	132
29	269
30	33
31	314
32	222
38	21
39	126
40	10
41	32
42	9
50	71
51	165
52	46
53	13
62	17
63	73
64	23
65	232
66	16
74	17
76	24
77	153
78	78
79	66
89	58
90	31
91	999
92	208
93	13
103	14
104	73
105	41
106	404
107	36
117	13
118	55
119	9
120	68
121	8
194	14
195	15
196	93
197	87
198	11
