Mass spectrum: 3-METHYL-1-PENTYN-3-OL; EI-MS
Formula: C6H10O
Exact mass: 98.07316
Instrument type: EI-MS
m/z	relative intensity
27	59
29	74
31	22
39	70
41	39
43	326
50	16
51	26
53	56
55	81
68	22
69	999
70	47
79	27
81	38
83	234
84	15
98	16
