Mass spectrum: TRIBUTYL BORATE; EI-MS
Formula: C12H27BO3
Exact mass: 230.20533
Instrument type: EI-MS
m/z	relative intensity
27	80
28	300
29	220
31	8
41	280
42	50
43	70
45	1
55	260
56	430
57	999
58	1
73	10
101	200
117	160
131	1
157	60
173	90
174	40
187	1
230	90
