Mass spectrum: 1,1-DICHLORO-2-PHENYLETHENE; EI-MS
Name: (2,2-DICHLOROETHENYL)BENZENE
Formula: C8H6Cl2
Exact mass: 171.98466
Instrument type: EI-MS
m/z	relative intensity
50	88
51	128
62	18
63	26
68	106
69	34
74	48
75	82
76	31
77	39
86	34
87	26
99	19
101	209
102	317
103	27
112	76
114	24
136	47
137	264
138	38
139	89
172	999
173	94
174	643
175	59
176	110
