Mass spectrum: TRIMETHYL ORTHOACETATE; EI-MS
Name: ORTHOACETIC ACID TRIMETHYL ESTER
Formula: C5H12O3
Exact mass: 120.07864
Instrument type: EI-MS
m/z	relative intensity
15	10
31	12
43	408
45	14
47	66
59	19
61	10
88	48
89	999
90	46
105	197
106	9
