Mass spectrum: TRIETHYL BORATE; EI-MS
Formula: C6H15BO3
Exact mass: 146.11142
Instrument type: EI-MS
m/z	relative intensity
27	130
28	120
29	120
31	9
43	110
44	260
45	999
58	1
59	110
73	740
87	330
89	1
101	790
103	70
117	390
118	1
131	570
132	60
145	170
146	440
