Mass spectrum: 1-(TRANS-3-HYDROXYTETRAHYDRO-2-FURANYL)-5-FLUOROURACIL; EI-MS
Formula: C8H9FN2O4
Exact mass: 216.05463
Instrument type: EI-MS
m/z	relative intensity
39	90
40	70
41	230
42	0
43	120
44	120
45	100
57	4
58	230
59	190
60	120
69	2
70	40
71	80
86	120
87	999
88	170
100	30
113	10
114	1
115	10
116	50
130	150
131	1
155	20
157	20
159	90
170	0
198	50
216	230
217	50
