Mass spectrum: ISOPHTHALIC ACID DIMETHYL ESTER (D6); EI-MS
Name: DI(2H3)METHYL ISOPHTHALATE
Formula: C10H10O4
Exact mass: 194.05791
Instrument type: EI-MS
m/z	relative intensity
18	53
50	99
51	11
52	26
62	15
66	23
74	38
75	93
76	135
77	17
78	52
79	12
92	32
103	102
104	36
110	23
119	53
120	73
138	293
139	24
165	13
166	999
167	98
199	14
200	221
201	19
