Mass spectrum: 5,6-DIHYDRO-6-HYDROXYMETHYL-3-METHYL-6-NONYL-2H-PYRAN-2-ONE; EI-MS
Formula: C16H28O3
Exact mass: 268.20384
Instrument type: EI-MS
m/z	relative intensity
14	13
17	57
18	234
27	5
28	297
29	120
31	20
32	6
39	26
40	10
41	165
42	3
43	248
44	32
45	11
53	2
54	14
55	130
56	71
57	13
58	12
67	71
68	15
69	5
70	11
71	46
73	11
81	3
82	13
83	45
84	48
85	999
86	61
95	30
97	19
98	2
101	48
109	14
111	13
115	0
151	11
155	56
156	11
194	0
195	15
211	12
226	11
253	6
254	11
266	12
267	12
