Mass spectrum: 2-OCTYLAMINE; EI-MS
Formula: C8H19N
Exact mass: 129.15175
Instrument type: EI-MS
m/z	relative intensity
15	11
18	56
27	42
28	3
29	36
30	68
39	25
41	6
42	42
43	42
44	999
45	3
55	31
56	23
58	10
114	34
