Mass spectrum: 2-PENTYLTHIOPHENE; EI-MS
Formula: C9H14S
Exact mass: 154.08162
Instrument type: EI-MS
m/z	relative intensity
27	13
29	104
39	22
41	112
42	10
43	86
53	87
55	21
63	19
65	12
67	32
77	24
78	11
79	23
84	106
85	64
97	999
98	515
99	237
100	38
110	22
111	162
112	35
121	11
125	11
154	375
155	76
156	34
