Mass spectrum: 12-METHYLTETRADECANOIC ACID TRIMETHYLSILYLESTER; EI-MS
Formula: C18H38O2Si
Exact mass: 314.26411
Instrument type: EI-MS
m/z	relative intensity
43	352
45	81
55	275
57	14
61	97
69	167
73	999
75	74
76	98
81	76
83	71
95	8
117	717
129	268
131	134
132	35
145	191
146	50
159	55
201	6
271	52
283	52
299	283
300	95
