Mass spectrum: CARBOBENZOXY-L-VALINE; EI-MS
Formula: C13H17NO4
Exact mass: 251.11576
Instrument type: EI-MS
m/z	relative intensity
41	14
43	33
55	13
56	13
65	27
70	12
72	22
74	22
77	19
79	55
90	17
91	999
92	100
98	24
101	48
107	143
108	496
110	36
116	66
162	137
163	16
206	30
251	45
252	7
