Mass spectrum: 4-METHYL-1-PENTEN-3-ONE; EI-MS
Formula: C6H10O
Exact mass: 98.07316
Instrument type: EI-MS
m/z	relative intensity
27	203
28	34
29	23
39	5
41	112
42	26
43	188
55	999
56	88
69	25
70	110
98	91
