Mass spectrum: METHYL 3,4-DIMETHOXYPHENYLACETATE; EI-MS
Formula: C11H14O4
Exact mass: 210.08921
Instrument type: EI-MS
m/z	relative intensity
39	66
44	19
51	53
59	40
63	28
65	66
77	57
78	42
90	32
91	34
106	66
107	94
119	15
121	11
135	32
136	13
151	999
152	104
195	21
210	441
211	60
