Mass spectrum: ISOVALERALDEHYDE DIISOBUTYL ACETAL; EI-MS
Formula: C13H28O2
Exact mass: 216.20893
Instrument type: EI-MS
m/z	relative intensity
27	37
29	139
31	13
39	3
41	203
42	18
43	103
45	3
55	23
56	30
57	999
58	5
69	125
71	23
85	21
87	13
103	83
143	204
144	18
159	69
