Mass spectrum: 1,1,3-TRIS(2-METHYL-4-HYDROXY-5-TERT-BUTYLPHENYL)BUTANE; EI-MS
Formula: C37H52O3
Exact mass: 544.39165
Instrument type: EI-MS
m/z	relative intensity
29	45
39	27
41	87
43	47
55	43
57	280
59	56
69	31
91	91
92	45
121	27
135	21
147	24
149	32
161	27
175	40
189	21
191	98
205	103
309	29
323	75
337	22
339	999
340	255
341	37
353	32
365	42
412	45
544	70
545	34
