Mass spectrum: ETHYLENE GLYCOL; EI-MS
Formula: C2H6O2
Exact mass: 62.03678
Instrument type: EI-MS
m/z	relative intensity
18	17
27	36
29	58
31	999
32	96
33	361
43	49
44	13
45	10
62	17
