Mass spectrum: 2-METHYLPENTANOIC ACID METHYL ESTER; EI-MS
Formula: C7H14O2
Exact mass: 130.09938
Instrument type: EI-MS
m/z	relative intensity
38	22
40	119
41	51
43	47
44	65
55	92
56	67
57	20
58	9
69	42
70	24
71	24
72	9
83	13
87	79
88	999
89	40
99	126
101	139
102	1
115	27
