Mass spectrum: 5-METHYL-2-BUTYRYLFURAN; EI-MS
Formula: C9H12O2
Exact mass: 152.08373
Instrument type: EI-MS
m/z	relative intensity
27	60
41	39
42	68
43	123
52	21
53	262
54	32
55	43
70	10
71	11
81	58
82	101
95	43
108	10
109	999
110	99
111	11
123	16
124	616
125	57
137	135
138	10
152	212
