Mass spectrum: 2-PHENOXYETHANOL; EI-MS
Formula: C8H10O2
Exact mass: 138.06808
Instrument type: EI-MS
m/z	relative intensity
27	59
39	70
40	61
43	33
45	247
51	64
65	107
66	201
67	20
77	246
78	37
79	73
94	999
95	148
107	58
138	207
139	14
