Mass spectrum: 1-PHENYLETHYL HEXANOATE; EI-MS
Name: METHYLPHENYLCARBINYL HEXANOATE
Formula: C14H20O2
Exact mass: 220.14633
Instrument type: EI-MS
m/z	relative intensity
27	123
29	95
39	61
41	106
42	36
43	262
50	24
51	70
52	20
53	15
55	36
63	17
65	12
69	13
71	103
77	223
78	138
79	127
91	13
99	164
100	10
102	15
103	132
104	702
105	999
106	74
107	36
115	19
121	43
122	751
123	50
220	34
