Mass spectrum: ISOPROPYLHYDRAZONE ACETALDEHYDE; EI-MS
Name: ACETALDEHYDE ISOPROPYLHYDRAZONE
Formula: C5H12N2
Exact mass: 100.10005
Instrument type: EI-MS
m/z	relative intensity
28	228
29	86
30	119
31	4
39	61
40	30
41	193
42	28
43	228
44	738
45	30
55	1
56	42
57	105
58	124
59	2
68	10
69	11
85	999
86	6
99	21
100	385
101	47
