Mass spectrum: ETHYL PELARGONATE; EI-MS
Formula: C11H22O2
Exact mass: 186.16198
Instrument type: EI-MS
m/z	relative intensity
27	119
28	40
29	323
39	54
41	247
42	90
43	304
45	111
55	217
56	75
57	217
60	255
61	211
67	21
69	92
70	236
71	141
73	234
74	34
81	28
83	51
84	45
87	32
88	999
89	82
97	39
101	378
102	35
115	68
129	29
141	203
143	79
157	64
186	28
