Mass spectrum: ETHYLENE GLYCOL DIBUTYRATE; EI-MS
Formula: C10H18O4
Exact mass: 202.12051
Instrument type: EI-MS
m/z	relative intensity
41	16
42	16
43	242
70	2
71	999
72	46
86	50
99	1
101	13
103	11
114	42
115	11
142	13
144	13
159	9
