Mass spectrum: 6-HYDROXY-5,7,8-TRIMETHYL-3,4-DIHYDROCOUMARIN; EI-MS
Formula: C12H14O3
Exact mass: 206.09429
Instrument type: EI-MS
m/z	relative intensity
27	50
28	28
39	78
41	6
43	61
51	47
53	77
55	5
65	47
67	52
77	64
79	4
89	59
91	105
121	184
135	12
136	225
149	38
163	75
164	999
165	144
177	77
178	269
179	5
206	945
207	156
