Mass spectrum: DIPROPYL MALONATE; EI-MS
Formula: C9H16O4
Exact mass: 188.10486
Instrument type: EI-MS
m/z	relative intensity
15	19
26	15
27	251
29	67
31	127
39	81
41	270
42	282
43	999
44	13
57	45
59	48
60	98
61	79
69	34
87	302
102	18
105	595
106	17
129	504
130	32
147	68
