Mass spectrum: 2-METHYLPENTANOL; EI-MS
Formula: C6H14O
Exact mass: 102.10447
Instrument type: EI-MS
m/z	relative intensity
15	15
26	12
27	210
28	19
29	221
31	227
39	152
40	21
41	347
42	193
43	999
44	31
45	34
53	18
55	248
56	165
57	36
59	14
69	185
70	254
71	281
72	13
84	108
