Mass spectrum: (4S,5S)-4,5-BIS-(HYDROXYMETHYL)-2,2-DIMETHYL-1,3-DIOXOLANE; EI-MS
Formula: C7H14O4
Exact mass: 162.08921
Instrument type: EI-MS
m/z	relative intensity
43	68
45	17
59	218
61	5
69	150
87	45
113	55
131	50
