Mass spectrum: 3',4',5,7-TETRAACETOXYFLAVON; EI-MS
Name: LUTEOLIN TETRAACETATE
Formula: C23H18O10
Exact mass: 454.09
Instrument type: EI-MS
m/z	relative intensity
32	247
41	67
42	239
43	999
69	228
149	169
153	47
229	7
257	67
258	44
286	675
287	10
328	219
370	92
412	103
