Mass spectrum: ETHYL PARA TOLUATE; EI-MS
Name: PARA TOLUIC ACID ETHYL ESTER
Formula: C10H12O2
Exact mass: 164.08373
Instrument type: EI-MS
m/z	relative intensity
15	86
26	73
27	429
29	358
38	74
39	616
40	46
41	140
43	34
45	32
50	139
51	207
52	53
53	33
61	19
62	93
63	299
64	83
65	803
66	41
77	54
89	139
90	80
91	934
92	108
119	999
120	101
136	159
137	12
149	15
164	74
165	9
