Mass spectrum: DIETHYL ISOPROPYLMALONATE; EI-MS
Formula: C10H18O4
Exact mass: 202.12051
Instrument type: EI-MS
m/z	relative intensity
41	96
43	119
55	76
57	82
69	133
73	96
87	180
88	116
101	48
102	66
114	102
115	245
128	56
129	86
132	116
133	255
157	502
158	40
160	999
161	74
187	32
202	9
