Mass spectrum: 1,2-PROPANEDIOL; EI-MS
Formula: C3H8O2
Exact mass: 76.05243
Instrument type: EI-MS
m/z	relative intensity
15	59
19	58
26	16
27	132
28	23
29	157
30	12
31	165
33	13
39	13
41	14
42	25
43	181
44	66
45	999
46	23
57	16
61	54
