Mass spectrum: ETHYL 2-ETHOXYCARBONYL-3-(1-PHENETHYL)HEPTANOATE; EI-MS
Formula: C20H30O4
Exact mass: 334.21441
Instrument type: EI-MS
m/z	relative intensity
104	32
105	286
106	13
115	2
118	265
119	18
129	11
132	4
133	14
137	28
155	26
159	6
160	168
161	216
162	24
174	999
176	16
183	34
184	10
289	5
355	3
