Mass spectrum: 3,4-HEXANEDIONE; EI-MS
Formula: C6H10O2
Exact mass: 114.06808
Instrument type: EI-MS
m/z	relative intensity
27	40
29	783
57	999
58	32
114	86
