Mass spectrum: (Z,Z,Z)-6,12,15-OCTADECATRIENOIC ACID METHYL ESTER; EI-MS
Formula: C19H32O2
Exact mass: 292.24023
Instrument type: EI-MS
m/z	relative intensity
40	37
41	208
43	66
44	17
45	31
53	36
54	136
55	287
59	86
65	13
66	40
67	999
68	329
69	228
70	47
71	40
73	40
74	136
75	13
77	12
78	75
79	589
80	448
81	760
82	515
83	164
84	35
85	50
87	127
91	132
93	378
94	482
95	662
96	318
97	113
101	25
105	61
106	93
107	393
108	197
109	241
110	73
111	57
115	38
116	31
119	72
120	65
121	437
122	214
123	104
124	31
129	46
130	17
131	32
133	81
134	55
135	244
136	198
137	64
139	12
147	114
149	193
150	82
159	20
161	48
162	46
163	200
164	114
165	44
175	15
177	191
178	124
189	15
191	65
195	33
203	11
206	13
207	15
210	71
221	40
235	73
237	7
243	23
249	96
292	24
