Mass spectrum: ACETALDEHYDE DIMETHYL ACETAL; EI-MS
Name: 1,1-DIMETHOXYETHANE
Formula: C4H10O2
Exact mass: 90.06808
Instrument type: EI-MS
m/z	relative intensity
14	19
15	357
16	12
18	14
27	73
28	139
29	999
30	40
31	802
32	25
33	28
41	34
42	24
43	573
44	33
45	64
47	323
48	11
57	9
58	33
59	928
60	34
61	7
75	437
76	10
89	15
