Mass spectrum: METHANETRICARBALDEHYDE; EI-MS
Formula: C4H4O3
Exact mass: 100.01604
Instrument type: EI-MS
m/z	relative intensity
40	36
41	130
42	261
43	24
44	43
45	22
52	22
53	34
54	326
55	94
68	25
69	9
70	43
71	362
72	999
73	8
99	14
100	413
101	29
