Mass spectrum: CIS-3-HEXENYL FORMATE; EI-MS
Formula: C7H12O2
Exact mass: 128.08373
Instrument type: EI-MS
m/z	relative intensity
26	11
27	127
28	22
29	122
31	161
38	13
39	199
40	35
41	483
42	69
43	30
50	16
51	22
52	12
53	90
54	126
55	154
56	16
57	25
65	20
66	12
67	999
68	64
69	76
79	13
81	74
82	548
83	51
