Mass spectrum: BIS(2-CHLOROETHYL) ETHER; EI-MS
Formula: C4H8Cl2O
Exact mass: 141.99522
Instrument type: EI-MS
m/z	relative intensity
43	22
49	54
62	24
63	58
64	20
65	166
93	999
94	4
95	344
106	30
142	29
