Mass spectrum: BUTYL HEPTANOATE; EI-MS
Formula: C11H22O2
Exact mass: 186.16198
Instrument type: EI-MS
m/z	relative intensity
26	14
27	222
29	398
30	10
31	19
39	134
41	558
42	101
43	612
44	16
45	23
53	21
54	12
55	228
56	999
57	366
58	14
59	12
60	303
61	109
68	20
69	74
70	25
71	19
73	184
74	20
83	46
84	40
85	118
86	13
87	132
89	66
95	15
101	68
113	586
114	44
116	52
129	16
130	43
131	595
132	45
