Mass spectrum: ETHYLENE GLYCOL MONO-ALLYL ETHER; EI-MS
Formula: C5H10O2
Exact mass: 102.06808
Instrument type: EI-MS
m/z	relative intensity
15	44
26	28
27	115
28	42
29	109
30	24
31	339
32	10
38	20
39	260
40	48
41	999
42	202
43	81
44	54
45	288
46	10
54	10
55	26
56	24
57	181
58	532
59	91
61	14
69	14
71	127
83	14
