Mass spectrum: CYCLOHEXYL FORMATE; EI-MS
Formula: C7H12O2
Exact mass: 128.08373
Instrument type: EI-MS
m/z	relative intensity
26	13
27	148
28	27
29	193
31	47
39	186
40	29
41	329
42	69
43	95
44	129
45	14
51	23
53	63
54	374
55	286
56	48
57	411
58	27
66	12
67	996
68	62
69	10
71	20
77	11
79	24
81	87
82	999
83	199
