Mass spectrum: (3-PHENYLTHIO-5-HEXENYL)TRIMETHYLSILANE; EI-MS
Name: 4-PHENYLTHIO-6-TRIMETHYLSILYL-1-HEXENE
Formula: C15H24SSi
Exact mass: 264.1368
Instrument type: EI-MS
m/z	relative intensity
41	35
45	69
53	14
59	58
65	22
67	16
72	17
73	999
74	91
75	59
77	26
79	16
85	15
91	31
101	17
109	36
110	26
135	16
151	21
167	112
168	18
182	19
223	140
224	35
249	37
264	39
