Mass spectrum: 2,6-DIMETHYLCYCLOHEXANONE; EI-MS
Formula: C8H14O
Exact mass: 126.10447
Instrument type: EI-MS
m/z	relative intensity
40	76
42	727
43	310
44	267
53	58
54	51
55	459
56	876
57	154
58	329
59	62
67	70
68	999
69	962
70	166
83	120
84	124
97	105
98	460
111	61
126	596
127	53
