Mass spectrum: 4-DIMETHYLAMINOBENZOIC ACID METHYL ESTER; EI-MS
Formula: C10H13NO2
Exact mass: 179.09463
Instrument type: EI-MS
m/z	relative intensity
39	96
42	72
50	48
51	17
63	40
74	136
77	280
78	10
79	48
91	48
92	40
104	10
105	112
118	56
119	48
120	6
132	64
134	40
148	999
149	6
178	472
179	872
180	56
