Mass spectrum: CYCLOHEXYL ACETATE; EI-MS
Formula: C8H14O2
Exact mass: 142.09938
Instrument type: EI-MS
m/z	relative intensity
15	57
27	88
28	23
29	62
31	11
39	91
40	15
41	167
42	30
43	999
44	48
51	10
53	27
54	187
55	161
56	19
57	81
58	74
59	17
61	89
67	522
68	30
71	35
72	15
79	15
81	78
82	255
83	106
99	44
100	50
