Mass spectrum: 1,2,3,4-TETRAHYDRO-TRANS-3-METHYL-1-NAPHTHYL ACETATE; EI-MS
Formula: C13H16O2
Exact mass: 204.11503
Instrument type: EI-MS
m/z	relative intensity
120	60
128	7
129	440
130	5
143	20
144	999
145	170
146	1
161	10
162	190
163	20
204	10
