Mass spectrum: NITROBENZENE; EI-MS
Formula: C6H5NO2
Exact mass: 123.03203
Instrument type: EI-MS
m/z	relative intensity
27	21
30	59
37	16
38	21
39	42
49	11
50	123
51	417
52	21
63	15
64	11
65	122
66	11
73	11
74	46
75	29
76	26
77	999
78	68
93	128
94	10
107	47
123	634
124	48
