Mass spectrum: CHOLESTAN-3,6-DIONE; EI-MS
Formula: C27H44O2
Exact mass: 400.33413
Instrument type: EI-MS
m/z	relative intensity
40	14
41	29
42	29
43	10
55	101
56	72
57	116
58	4
67	58
68	87
69	159
70	4
71	87
79	43
81	188
82	3
83	87
84	43
85	29
91	3
92	14
93	116
94	72
95	16
96	58
97	72
101	29
105	3
106	14
107	246
108	130
109	20
110	43
111	87
112	29
113	3
119	87
120	43
121	145
122	17
123	188
124	478
125	87
126	3
131	58
133	130
134	58
135	19
136	130
137	232
138	72
139	3
140	29
141	29
143	43
145	4
146	29
147	145
148	72
149	15
150	58
151	58
152	43
159	6
160	43
161	101
162	29
163	13
164	58
165	29
171	29
173	9
174	58
175	101
176	43
177	9
178	43
180	29
182	29
183	6
185	58
187	101
188	43
189	7
190	29
191	87
192	43
193	4
197	29
198	29
199	29
200	3
201	43
202	14
203	43
204	4
205	29
206	43
211	43
212	3
213	72
215	58
217	116
218	4
219	58
220	29
226	29
227	4
229	261
230	58
231	290
232	6
233	58
238	29
242	58
243	6
244	652
245	377
246	203
247	6
251	29
252	29
254	29
256	4
257	14
258	116
259	188
260	22
261	87
262	43
263	29
264	3
269	72
270	29
271	72
272	4
273	43
274	29
275	29
276	1
277	14
285	72
286	87
287	38
288	87
289	29
290	43
291	3
297	29
298	29
299	87
300	3
301	14
302	14
303	29
304	3
311	29
313	14
314	43
315	3
316	29
318	29
325	43
327	9
329	43
330	29
331	29
341	4
342	203
343	72
356	29
366	4
367	43
369	58
371	101
372	4
382	58
383	29
384	377
385	28
386	101
387	29
398	43
399	4
400	999
401	362
402	72
