Mass spectrum: FLUORESCEIN; EI-MS
Formula: C20H12O5
Exact mass: 332.06847
Instrument type: EI-MS
m/z	relative intensity
43	15
44	12
55	11
69	14
71	13
76	26
81	14
93	14
104	22
107	14
121	12
135	45
137	11
138	22
139	12
144	30
152	20
176	21
187	12
189	34
200	31
201	39
202	138
203	28
205	13
213	41
214	11
229	27
230	11
231	24
242	17
258	84
259	51
260	13
271	319
272	74
273	14
287	999
288	758
289	142
290	18
303	25
331	15
332	34
333	12
