Mass spectrum: (E)-1-DIMETHYLSILYL-2-TRIMETHYLSILYLETHYLENE; EI-MS
Formula: C7H18Si2
Exact mass: 158.0947
Instrument type: EI-MS
m/z	relative intensity
43	75
45	83
53	11
55	18
58	29
59	191
60	17
69	13
73	999
74	79
75	39
83	208
84	33
85	307
86	30
87	12
99	43
116	12
117	16
127	15
143	180
144	31
145	15
158	139
159	25
160	12
