Mass spectrum: PHENYL PROPYL ETHER; EI-MS
Formula: C9H12O
Exact mass: 136.08882
Instrument type: EI-MS
m/z	relative intensity
27	36
39	58
40	13
41	5
43	41
50	13
51	48
55	1
63	39
94	999
95	65
107	13
136	26
137	22
