Mass spectrum: TRIMETHYLENEDIAMINE; EI-MS
Formula: C3H10N2
Exact mass: 74.0844
Instrument type: EI-MS
m/z	relative intensity
14	20
15	50
16	12
18	24
26	18
27	74
28	32
29	6
30	999
31	35
32	12
39	2
40	10
41	45
42	83
43	4
44	129
56	185
57	444
58	7
70	12
