Mass spectrum: TETRAKIS(PENTAFLUOROPHENYL)-SILANE; EI-MS
Formula: C24F20Si
Exact mass: 695.94499
Instrument type: EI-MS
m/z	relative intensity
31	92
47	30
69	40
79	18
85	155
93	125
98	90
110	0
117	160
129	60
130	45
141	5
148	170
159	70
177	60
183	3
189	90
196	40
203	50
208	1
227	590
228	70
233	130
245	1
258	340
259	50
265	80
272	1
276	390
277	999
278	140
297	6
325	50
331	200
337	70
344	0
348	20
356	70
362	110
368	0
375	65
376	12
387	30
395	0
406	60
407	13
413	55
425	2
426	35
444	210
445	40
479	1
480	30
510	50
523	55
529	0
542	10
548	20
554	10
561	2
573	20
592	10
627	10
677	0
696	790
697	215
698	60
