Mass spectrum: TRIPHENYLMETHANOL; EI-MS
Name: TRIPHENYLCARBINOL
Formula: C19H16O
Exact mass: 260.12012
Instrument type: EI-MS
m/z	relative intensity
39	13
50	21
51	88
76	16
77	375
78	53
91	11
105	875
106	72
115	15
139	10
152	40
153	33
154	503
155	249
156	28
165	95
166	23
167	13
181	56
182	281
183	999
184	143
185	14
215	11
239	19
241	24
242	26
243	416
244	110
245	13
259	20
260	783
261	163
262	19
