Mass spectrum: 2-METHYLHEPT-6-EN-3-ONE; EI-MS
Formula: C8H14O
Exact mass: 126.10447
Instrument type: EI-MS
m/z	relative intensity
42	33
43	492
53	37
54	20
55	999
56	52
57	16
67	10
69	15
70	13
71	546
72	35
82	14
83	384
84	23
126	54
