Mass spectrum: 1,3,5-TRIOXANE; EI-MS
Formula: C3H6O3
Exact mass: 90.03169
Instrument type: EI-MS
m/z	relative intensity
18	37
28	76
29	148
30	47
31	999
32	76
41	15
43	22
55	15
57	18
61	353
89	189
