Mass spectrum: P-METHYLBENZALDEHYDE; EI-MS
Formula: C8H8O
Exact mass: 120.05751
Instrument type: EI-MS
m/z	relative intensity
27	23
29	57
37	14
38	36
39	196
40	10
41	27
50	82
51	106
52	19
53	11
61	23
62	74
63	159
64	32
65	264
66	16
74	23
75	15
77	13
86	14
87	10
89	98
90	38
91	921
92	108
119	999
120	828
121	76
