Mass spectrum: BENZO(A)PYRENE; EI-MS
Formula: C20H12
Exact mass: 252.0939
Instrument type: EI-MS
m/z	relative intensity
63	13
74	13
84	18
87	16
99	26
100	37
101	10
111	45
112	157
113	255
123	26
124	176
125	270
126	307
127	18
198	13
200	18
222	18
223	16
224	52
225	34
226	37
227	13
228	10
247	16
248	58
249	50
250	241
251	134
252	999
253	244
254	34
