Mass spectrum: 1(2H)-METHYLENE-6(7H)-OXO-4-VINYL-3,4,4ABETA,5,8,8AALPHA-HEXAHYDRONAPHTHALENE; EI-MS
Formula: C13H18O
Exact mass: 190.13577
Instrument type: EI-MS
m/z	relative intensity
27	173
39	266
41	417
51	70
52	54
53	204
54	126
55	472
65	155
66	105
67	277
68	79
77	314
78	125
79	999
80	608
81	387
82	59
83	67
91	49
92	194
93	579
94	512
95	164
96	74
104	60
105	292
106	185
107	249
108	247
109	55
110	165
117	113
118	60
119	208
120	266
121	102
122	57
131	58
132	189
133	218
134	132
135	110
136	50
137	50
147	118
148	176
149	54
161	164
162	411
163	52
172	69
175	51
190	531
191	84
