Mass spectrum: 3-PYRIDINECARBOXYLIC ACID METHYL ESTER; EI-MS
Name: NICOTINIC ACID METHYL ESTER
Formula: C7H7NO2
Exact mass: 137.04768
Instrument type: EI-MS
m/z	relative intensity
39	25
49	22
50	182
51	46
52	67
53	35
76	25
77	7
78	999
93	37
105	95
106	81
107	102
109	42
136	238
137	90
138	72
