Mass spectrum: METHYL PROPIONATE; EI-MS
Formula: C4H8O2
Exact mass: 88.05243
Instrument type: EI-MS
m/z	relative intensity
27	24
28	48
29	534
30	15
31	54
32	24
43	9
45	15
55	21
56	27
57	999
58	39
59	290
60	12
87	24
88	370
89	15
