Mass spectrum: HEXYL OCTANOATE; EI-MS
Formula: C14H28O2
Exact mass: 228.20893
Instrument type: EI-MS
m/z	relative intensity
27	201
29	319
31	13
39	115
41	579
42	274
43	999
44	21
45	18
53	27
54	30
55	443
56	586
57	615
58	24
59	17
60	166
61	314
67	35
68	17
69	231
70	26
71	18
73	175
74	16
81	11
82	22
83	77
84	825
85	154
87	51
89	36
97	24
98	25
101	85
103	19
109	17
115	29
125	11
127	422
128	31
129	20
144	71
145	702
146	50
