Mass spectrum: UNDECANOIC ACID TRIMETHYLSILYL ESTER; EI-MS
Formula: C14H30O2Si
Exact mass: 258.20151
Instrument type: EI-MS
m/z	relative intensity
43	655
45	145
47	177
55	20
56	74
57	93
67	71
69	11
73	885
74	105
75	999
76	7
77	223
81	74
83	71
95	7
117	649
129	214
131	139
132	22
145	130
243	459
244	68
