Mass spectrum: 2-ETHYLHEXANOL; EI-MS
Formula: C8H18O
Exact mass: 130.13577
Instrument type: EI-MS
m/z	relative intensity
27	210
29	263
35	159
39	14
41	505
43	440
57	999
72	9
128	18
