Mass spectrum: ISOBUTYL BUTYRATE; EI-MS
Name: 2-METHYLPROPYL BUTYRATE
Formula: C8H16O2
Exact mass: 144.11503
Instrument type: EI-MS
m/z	relative intensity
15	15
26	11
27	198
28	27
29	142
31	15
39	119
40	16
41	295
42	82
43	516
44	17
45	11
55	35
56	383
57	197
60	57
70	14
71	999
72	49
73	60
88	28
89	147
101	58
114	14
