Mass spectrum: PENTYL ETHER; EI-MS
Formula: C10H22O
Exact mass: 158.16707
Instrument type: EI-MS
m/z	relative intensity
29	16
41	29
42	103
43	51
44	19
45	15
55	84
56	1
57	10
68	10
69	171
70	47
71	999
72	58
87	25
89	2
101	78
115	14
158	39
