Mass spectrum: 1,4-BUTANEDIOL; EI-MS
Formula: C4H10O2
Exact mass: 90.06808
Instrument type: EI-MS
m/z	relative intensity
15	27
19	23
26	28
27	226
28	60
29	225
30	19
31	974
32	15
38	11
39	131
40	65
41	398
42	999
43	204
44	865
45	54
53	18
54	10
55	19
57	218
60	33
62	22
71	231
72	73
