Mass spectrum: 2-METHYL-4-METHOXYOCT-1-ENE; EI-MS
Formula: C10H20O
Exact mass: 156.15142
Instrument type: EI-MS
m/z	relative intensity
42	223
43	60
45	521
46	12
53	24
55	60
57	16
58	23
59	69
67	74
68	21
69	946
70	57
71	60
81	24
83	10
95	17
99	128
100	15
101	999
102	72
156	1
