Mass spectrum: DOCOSANOIC ACID TRIMETHYLSILYL ESTER; EI-MS
Formula: C25H52O2Si
Exact mass: 412.37366
Instrument type: EI-MS
m/z	relative intensity
43	358
45	166
55	307
56	15
57	269
67	153
69	141
71	17
73	999
74	128
75	705
81	15
83	153
95	141
97	153
98	14
117	935
118	141
129	410
131	15
132	500
133	153
135	282
145	44
197	141
315	64
396	76
397	397
