Mass spectrum: TOLUENE; EI-MS
Formula: C7H8
Exact mass: 92.0626
Instrument type: EI-MS
m/z	relative intensity
41	161
43	225
50	60
52	51
53	51
56	413
57	223
62	5
63	120
64	53
65	170
71	5
85	46
89	91
90	49
91	999
92	771
93	85
