Mass spectrum: 1,1-DIPROPYLHYDRAZINE; EI-MS
Formula: C6H16N2
Exact mass: 116.13135
Instrument type: EI-MS
m/z	relative intensity
27	99
28	54
29	29
30	4
31	23
39	38
41	115
42	4
43	225
44	42
45	784
46	2
56	32
58	30
59	24
70	2
72	9
73	13
87	999
88	6
116	221
117	26
