Mass spectrum: 2-(ETHYLTHIO)ETHANOL; EI-MS
Formula: C4H10OS
Exact mass: 106.04524
Instrument type: EI-MS
m/z	relative intensity
14	11
15	40
19	15
26	61
27	317
28	40
29	262
31	166
35	63
41	68
42	23
43	78
44	65
45	294
46	148
47	632
48	83
49	29
57	21
58	69
59	147
60	137
61	212
62	115
63	133
75	999
76	64
77	62
106	483
107	25
108	19
