Mass spectrum: ISOPENTYL NONANOATE; EI-MS
Formula: C14H28O2
Exact mass: 228.20893
Instrument type: EI-MS
m/z	relative intensity
27	61
29	100
39	36
41	205
42	80
43	404
45	11
53	11
54	12
55	221
56	29
57	161
60	40
61	14
67	13
68	10
69	42
70	999
71	378
72	19
73	37
81	15
83	12
84	16
87	15
97	14
98	13
115	29
129	16
130	13
141	232
142	20
158	24
159	52
