Mass spectrum: 2,3-BUTANEDIONE; EI-MS
Formula: C4H6O2
Exact mass: 86.03678
Instrument type: EI-MS
m/z	relative intensity
13	12
14	55
15	203
26	15
27	11
29	16
41	18
42	84
43	999
44	23
86	102
