Mass spectrum: UNDECANOL; EI-MS
Formula: C11H24O
Exact mass: 172.18272
Instrument type: EI-MS
m/z	relative intensity
26	11
27	244
28	57
29	429
30	13
31	373
39	168
40	39
41	885
42	343
43	919
44	50
45	29
53	58
54	77
55	999
56	798
57	527
58	20
67	96
68	286
69	769
70	689
71	172
73	21
81	28
82	234
83	590
84	451
85	85
96	60
97	390
98	186
99	17
110	15
111	116
112	57
125	47
126	136
127	15
154	20
