Mass spectrum: 2,3,4-TRIS(TRIMETHYLSILOXY)BENZOIC ACID TRIMETHYLSILYL ESTER; EI-MS
Formula: C19H38O5Si4
Exact mass: 458.17963
Instrument type: EI-MS
m/z	relative intensity
44	37
73	662
74	52
75	4
77	23
133	31
147	80
149	1
179	10
193	12
207	16
281	22
282	54
283	18
295	10
353	1
355	31
356	10
443	999
444	40
445	229
446	54
447	14
458	1
459	6
