Mass spectrum: PENTANAL; EI-MS
Formula: C5H10O
Exact mass: 86.07316
Instrument type: EI-MS
m/z	relative intensity
15	34
26	56
27	383
28	30
29	535
31	24
38	27
39	173
41	448
42	109
43	169
44	999
45	102
50	17
51	19
53	26
55	50
57	201
58	303
71	16
