Mass spectrum: CYCLODECYL PROPIONATE; EI-MS
Formula: C13H24O2
Exact mass: 212.17763
Instrument type: EI-MS
m/z	relative intensity
27	67
28	21
29	293
39	33
41	230
42	13
43	52
53	27
54	40
55	97
56	160
57	999
58	33
67	226
68	16
69	41
70	13
75	280
77	11
79	29
80	222
81	176
82	318
83	97
84	12
95	34
96	18
97	10
110	10
123	102
138	74
