Mass spectrum: TRIALLYLHYDRAZINE; EI-MS
Formula: C9H16N2
Exact mass: 152.13135
Instrument type: EI-MS
m/z	relative intensity
28	78
29	41
30	33
38	1
39	189
40	30
41	999
42	9
43	41
53	13
54	33
55	7
56	50
57	11
67	14
68	2
69	28
70	14
81	18
83	1
94	8
111	426
112	37
113	2
152	104
153	12
