Mass spectrum: 3-HEPTANONE; EI-MS
Name: BUTYL ETHYL KETONE
Formula: C7H14O
Exact mass: 114.10447
Instrument type: EI-MS
m/z	relative intensity
27	112
28	62
29	453
39	44
41	188
42	23
43	108
55	32
56	19
57	999
58	38
72	207
73	11
85	292
86	17
114	110
115	36
