Mass spectrum: NICOTINIC ACID TRIMETHYLSILYL ESTER; EI-MS
Name: PYRIDINE-3-CARBOXYLIC ACID TRIMETHYLSILYLESTER
Formula: C9H13NO2Si
Exact mass: 195.07156
Instrument type: EI-MS
m/z	relative intensity
43	16
44	32
45	55
47	4
50	26
51	156
52	16
53	1
59	16
72	16
73	13
74	2
75	19
76	6
77	13
78	36
79	26
90	29
106	434
107	3
136	477
137	55
138	13
180	999
181	137
182	42
186	6
194	1
195	52
196	6
