Mass spectrum: METHYL 3-TRIMETHYLSILYLMETHYL-3-CYCLOHEXENECARBOXYLATE; EI-MS
Formula: C12H22O2Si
Exact mass: 226.13891
Instrument type: EI-MS
m/z	relative intensity
58	69
59	78
73	999
74	62
75	84
79	355
80	48
89	173
92	63
93	144
94	673
95	59
104	41
107	37
122	208
195	127
205	151
211	62
220	63
226	163
227	43
