Mass spectrum: ETHYLENE GLYCOL MONOACETATE; EI-MS
Name: 2-HYDROXYETHYL ACETATE
Formula: C4H8O3
Exact mass: 104.04734
Instrument type: EI-MS
m/z	relative intensity
18	11
29	21
31	86
42	23
43	999
44	130
45	78
61	113
73	183
74	260
76	13
104	2
