Mass spectrum: 2-PENTYL-2-CYCLOPENTENONE; EI-MS
Formula: C10H16O
Exact mass: 152.12012
Instrument type: EI-MS
m/z	relative intensity
15	23
26	40
27	436
28	107
29	308
38	20
39	452
40	52
41	755
42	61
43	100
44	15
50	31
51	89
52	80
53	240
54	79
55	183
56	11
57	13
63	28
65	125
66	102
67	545
68	229
69	52
77	94
78	35
79	175
80	36
81	222
82	49
83	37
84	13
91	46
93	42
94	25
95	307
96	999
97	708
98	45
105	18
108	32
109	353
110	213
111	33
119	28
123	293
124	63
137	102
151	43
152	257
153	37
