Mass spectrum: DIBUTYLTIN MALEATE; EI-MS
Formula: C12H20O4Sn
Exact mass: 348.03836
Instrument type: EI-MS
m/z	relative intensity
25	76
26	609
27	32
28	40
29	52
41	79
43	38
44	54
52	27
53	105
54	999
55	60
57	70
69	29
98	285
99	24
219	53
