Mass spectrum: NERYL PROPIONATE; EI-MS
Name: (Z)-3,7-DIMETHYL-2,6-OCTADIENYL PROPIONATE
Formula: C13H22O2
Exact mass: 210.16198
Instrument type: EI-MS
m/z	relative intensity
27	89
29	239
39	89
40	26
41	515
42	31
43	41
51	12
53	95
55	46
57	502
58	13
65	17
66	11
67	127
68	492
69	999
70	56
77	29
79	49
80	228
81	106
82	13
83	13
84	49
85	33
91	30
92	96
93	452
94	74
95	28
97	12
105	15
107	57
108	14
109	10
121	185
122	18
123	19
136	181
137	35
154	21
