Mass spectrum: 4(8)-PARA-MENTHEN-3-YL ACETATE; EI-MS
Formula: C12H20O2
Exact mass: 196.14633
Instrument type: EI-MS
m/z	relative intensity
15	20
17	80
27	120
28	1
31	25
39	10
40	10
41	22
42	30
43	20
53	10
55	4
56	10
57	15
58	80
60	5
66	15
67	40
68	95
69	2
70	10
75	20
76	10
77	59
78	80
79	60
80	15
81	2
90	60
91	75
92	585
93	22
94	80
95	15
104	10
105	4
106	20
107	20
108	600
110	16
111	15
117	15
118	15
120	65
121	70
122	15
135	999
136	12
137	25
138	10
