Mass spectrum: N-METHYLCYCLOHEXYLAMINE; EI-MS
Formula: C7H15N
Exact mass: 113.12045
Instrument type: EI-MS
m/z	relative intensity
42	80
44	70
56	73
57	20
70	999
71	80
84	80
113	165
