Mass spectrum: 3-CHLOROBENZOIC ACID METHYL ESTER; EI-MS
Formula: C8H7ClO2
Exact mass: 170.01346
Instrument type: EI-MS
m/z	relative intensity
49	21
50	245
51	124
57	2
59	34
61	21
63	24
67	4
73	34
74	149
75	552
76	15
77	68
85	43
111	999
112	6
113	329
114	21
135	37
139	23
140	180
141	714
142	40
169	3
170	720
171	55
172	229
