Mass spectrum: METHACRYLIC ACID ISOBUTYL ESTER; EI-MS
Name: ISOBUTYL METHACRYLATE
Formula: C8H14O2
Exact mass: 142.09938
Instrument type: EI-MS
m/z	relative intensity
15	7
27	37
28	19
29	85
31	7
39	119
40	30
41	567
42	31
43	36
55	32
56	521
57	84
59	10
69	999
70	52
73	14
87	234
88	11
99	20
112	5
