Mass spectrum: ORTHO-NITROBENZOIC ACID; EI-MS
Name: 2-NITROBENZOIC ACID
Formula: C7H5NO4
Exact mass: 167.02186
Instrument type: EI-MS
m/z	relative intensity
26	12
27	36
28	16
29	12
30	402
37	31
38	52
39	350
40	13
45	76
46	76
49	18
50	257
51	176
52	24
53	65
55	10
61	12
62	21
63	94
64	49
65	999
66	58
73	16
74	117
75	84
76	145
77	163
78	32
79	75
81	66
92	57
93	245
94	22
104	19
106	11
107	21
109	67
121	166
122	16
123	128
124	15
134	41
137	14
150	555
151	242
152	27
167	83
168	267
169	23
