Mass spectrum: 5-TRIMETHYLSILYLMETHYL-2,3,3A,4,7,7A-HEXAHYDROINDEN-1-ONE; EI-MS
Formula: C13H22OSi
Exact mass: 222.14399
Instrument type: EI-MS
m/z	relative intensity
43	32
45	101
59	62
73	999
74	94
75	138
77	31
79	26
91	83
92	22
105	26
106	35
117	66
131	37
132	63
154	76
155	182
156	29
166	98
167	527
168	93
169	28
181	55
193	25
207	123
208	26
221	24
222	256
223	49
