Mass spectrum: ACETIC ACID PHENYL ESTER; EI-MS
Name: PHENYL ACETATE
Formula: C8H8O2
Exact mass: 136.05243
Instrument type: EI-MS
m/z	relative intensity
15	33
28	15
38	23
39	102
40	23
43	285
50	19
51	31
55	17
63	23
65	77
66	113
77	23
93	10
94	999
95	65
136	109
137	10
