Mass spectrum: NONANAL; EI-MS
Formula: C9H18O
Exact mass: 142.13577
Instrument type: EI-MS
m/z	relative intensity
41	531
42	148
43	885
44	689
45	203
54	98
55	426
56	951
57	999
58	66
59	36
66	33
67	69
68	262
69	344
70	394
71	354
72	92
74	30
81	197
82	164
83	180
84	151
85	66
93	95
94	36
95	180
96	121
97	49
98	292
99	39
111	59
114	30
119	59
