Mass spectrum: DIISOBUTYL PHTHALATE; EI-MS
Name: PHTHALIC ACID DIISOBUTYL ESTER
Formula: C16H22O4
Exact mass: 278.15181
Instrument type: EI-MS
m/z	relative intensity
56	18
57	94
149	999
150	97
151	10
167	62
205	35
223	112
224	14
278	3
