Mass spectrum: DI-ISOBUTYLAMINE; EI-MS
Formula: C8H19N
Exact mass: 129.15175
Instrument type: EI-MS
m/z	relative intensity
15	10
27	54
28	42
29	128
30	686
31	10
39	48
41	147
42	46
43	48
44	30
55	40
56	18
57	271
58	50
70	21
72	30
84	11
86	999
87	61
114	17
128	11
129	70
