Mass spectrum: BENZYL BENZOATE; EI-MS
Formula: C14H12O2
Exact mass: 212.08373
Instrument type: EI-MS
m/z	relative intensity
27	12
29	10
39	55
41	12
50	37
51	148
52	10
63	28
65	121
77	286
78	32
79	41
89	32
90	55
91	473
92	38
105	999
106	99
107	72
122	10
152	10
165	10
167	39
194	58
195	11
212	243
213	48
