Mass spectrum: TRIBROMOMETHANE; EI-MS
Name: BROMOFORM
Formula: CHBr3
Exact mass: 249.76284
Instrument type: EI-MS
m/z	relative intensity
45	90
79	306
80	27
81	29
82	29
89	20
91	297
92	17
93	296
94	169
109	23
158	2
160	50
162	25
171	519
173	999
175	507
250	33
252	108
254	11
256	33
