Mass spectrum: FURFURYL HEXANOATE; EI-MS
Formula: C11H16O3
Exact mass: 196.10994
Instrument type: EI-MS
m/z	relative intensity
26	11
27	30
29	40
41	50
42	21
43	257
44	11
45	11
51	10
52	200
53	119
55	40
56	10
57	20
59	20
60	10
61	10
69	68
70	40
71	118
80	178
81	999
82	215
83	10
97	79
98	408
99	180
100	10
101	48
115	22
167	10
196	112
197	10
