Mass spectrum: N,N-DIMETHYLANILINE; EI-MS
Name: N,N-DIMETHYLBENZENAMINE
Formula: C8H11N
Exact mass: 121.08915
Instrument type: EI-MS
m/z	relative intensity
15	26
27	20
28	24
39	55
42	93
43	20
44	38
50	53
51	161
52	42
605	36
63	26
65	38
77	337
78	72
79	95
91	62
92	38
93	41
94	22
103	61
104	132
105	148
106	61
107	26
118	61
119	30
120	999
121	779
122	69
