Mass spectrum: 3-(BENZYLAMINO)CAPROIC ACID; EI-MS
Name: 3-(BENZYLAMINO)HEXANOIC ACID
Formula: C13H19NO2
Exact mass: 221.14158
Instrument type: EI-MS
m/z	relative intensity
65	125
92	96
106	111
132	75
91	999
133	198
162	70
178	216
