Mass spectrum: 3-PHENYL-2-TRIMETHYLSILOXYPROPENE; EI-MS
Formula: C12H18OSi
Exact mass: 206.11269
Instrument type: EI-MS
m/z	relative intensity
43	226
44	34
45	152
47	65
51	43
59	37
61	34
65	67
72	47
73	999
74	95
75	554
76	44
77	102
91	223
92	60
105	112
115	212
116	68
117	630
118	64
134	62
135	39
173	86
175	78
191	618
192	107
206	926
207	167
208	44
