Mass spectrum: 3-METHYL-1-PHENYL-2-BUTANONE; EI-MS
Formula: C11H14O
Exact mass: 162.10447
Instrument type: EI-MS
m/z	relative intensity
42	95
43	999
51	27
63	32
64	11
65	143
70	169
71	847
72	41
77	13
89	33
90	22
91	625
92	112
105	15
162	118
163	14
