Mass spectrum: 2-(4-TRIMETHYLSILYLMETHYL-3-CYCLOHEXENYL)-6-METHYL-5-HEPTEN-2-OL; EI-MS
Formula: C18H34OSi
Exact mass: 294.23789
Instrument type: EI-MS
m/z	relative intensity
41	100
45	51
55	31
59	47
67	28
69	123
73	999
74	83
75	80
79	30
80	46
91	40
92	47
93	175
94	26
98	29
105	30
107	28
109	56
121	38
133	40
191	58
193	27
206	27
207	26
261	16
276	146
277	40
294	5
