Mass spectrum: 1-(2,4,6-TRIMETHYLPHENOXY)-2-AMINOPROPANE; EI-MS
Formula: C12H19NO
Exact mass: 193.14666
Instrument type: EI-MS
m/z	relative intensity
52	14
54	11
56	11
57	22
58	999
59	41
65	29
77	40
78	10
79	25
91	85
92	12
103	12
105	17
119	23
121	74
135	45
136	113
193	30
