Mass spectrum: METHYL 3-METHYLHEPTANE-1,7-DIOATE; EI-MS
Name: 3-METHYLHEPTANEDIOIC ACID DIMETHYL ESTER
Formula: C10H18O4
Exact mass: 202.12051
Instrument type: EI-MS
m/z	relative intensity
31	170
41	560
43	380
55	530
59	720
69	999
74	720
83	330
87	330
97	700
101	190
111	220
115	140
128	181
139	289
142	240
154	180
155	120
170	70
171	410
