Mass spectrum: 2,5,7-TRIMETHYL-1,2,3,4-TETRAHYDROPYRIMIDO(1,6-A)INDOLE; EI-MS
Formula: C14H18N2
Exact mass: 214.147
Instrument type: EI-MS
m/z	relative intensity
41	10
55	21
57	12
81	1
115	29
128	20
144	28
156	9
157	22
158	34
170	196
171	999
172	106
213	28
214	350
