Mass spectrum: PYRAZINE; EI-MS
Name: 1,4-DIAZINE
Formula: C4H4N2
Exact mass: 80.03745
Instrument type: EI-MS
m/z	relative intensity
32	21
38	46
39	53
40	39
44	10
50	26
51	146
52	218
53	697
54	27
79	20
80	999
81	60
