Mass spectrum: PHOSPHORIC ACID TRIMETHYL ESTER; EI-MS
Formula: C3H9O4P
Exact mass: 140.02385
Instrument type: EI-MS
m/z	relative intensity
45	14
47	79
48	10
55	2
59	14
65	39
79	336
80	33
87	18
93	28
95	199
109	29
110	999
111	25
140	105
