Mass spectrum: PHENETHYL CHLORIDE; EI-MS
Name: 2-CHLOROETHYLBENZENE
Formula: C8H9Cl
Exact mass: 140.03928
Instrument type: EI-MS
m/z	relative intensity
27	27
28	27
38	10
39	47
50	39
51	88
52	18
63	10
64	27
66	59
74	12
75	10
77	65
78	33
79	18
89	14
91	999
92	80
103	39
104	23
105	31
140	151
141	12
142	49
