Mass spectrum: 4-ETHOXY-3-METHOXYDIHYDROFURO(3',2':6,7)COUMARIN; EI-MS
Formula: C14H14O5
Exact mass: 262.08412
Instrument type: EI-MS
m/z	relative intensity
77	140
78	130
89	40
106	30
118	30
134	50
162	90
163	70
191	999
192	110
205	100
219	290
234	30
247	80
262	770
263	110
