Mass spectrum: 2,4,5,7-TETRAMETHYL-1,2,3,4-TETRAHYDROPYRIMIDO(1,6-A)INDOLE; EI-MS
Formula: C15H20N2
Exact mass: 228.16265
Instrument type: EI-MS
m/z	relative intensity
41	12
42	14
55	32
77	1
115	42
128	12
130	10
158	5
168	15
170	32
184	239
185	999
186	84
227	16
228	310
