Mass spectrum: 5,7-DIMETHYLINDOLE; EI-MS
Formula: C10H11N
Exact mass: 145.08915
Instrument type: EI-MS
m/z	relative intensity
27	12
28	10
38	31
39	123
51	114
58.5	81
63	74
65	103
77	71
89	41
91	62
103	35
115	123
117	76
130	631
131	68
144	731
145	999
146	109
