Mass spectrum: CINNAMYL ISOVALERATE; EI-MS
Formula: C14H18O2
Exact mass: 218.13068
Instrument type: EI-MS
m/z	relative intensity
27	91
29	117
39	142
41	244
42	36
43	111
50	20
51	58
52	16
55	26
57	909
58	36
59	11
63	32
65	37
69	11
75	10
76	14
77	96
78	39
79	21
85	999
86	46
89	28
91	165
92	35
102	25
103	40
104	27
105	38
115	381
116	182
117	471
118	43
131	11
133	59
134	43
218	67
219	12
