Mass spectrum: BETA-METHOXYETHOXYMETHYLCHLORIDE; EI-MS
Formula: C4H9ClO2
Exact mass: 124.02911
Instrument type: EI-MS
m/z	relative intensity
15	44
28	27
29	109
31	93
43	58
44	51
45	999
46	23
49	64
51	22
58	192
59	286
60	132
79	31
81	10
88	80
89	88
93	7
95	2
