Mass spectrum: 9,10-DICYANOANTHRACENE; EI-MS
Formula: C16H8N2
Exact mass: 228.06875
Instrument type: EI-MS
m/z	relative intensity
51	11
73	12
74	23
75	23
86	12
87	59
88	15
98	12
99	13
100	26
101	65
114	69
147	10
150	12
151	12
174	30
175	36
176	14
177	11
199	35
200	56
201	88
202	31
207	16
226	31
227	57
228	999
229	190
230	17
