Mass spectrum: 1,1,3,3-TETRAMETHYL-1,2,3,4-TETRAHYDRO-GAMMA-CARBOLINE-5-PROPIONIC ACID; EI-MS
Formula: C18H24N2O2
Exact mass: 300.18378
Instrument type: EI-MS
m/z	relative intensity
42	44
43	18
82	26
105	14
128	16
168	31
162	19
184	5
243	93
244	19
285	999
286	16
299	11
300	54
