Mass spectrum: METHYL PROPYL KETONE; EI-MS
Name: 2-PENTANONE
Formula: C5H10O
Exact mass: 86.07316
Instrument type: EI-MS
m/z	relative intensity
15	33
27	73
28	16
29	15
39	36
41	90
42	33
43	999
44	25
58	75
71	72
86	135
87	15
