Mass spectrum: DL-ALPHA,3,4-TRI(TRIMETHYLSILYL)OXY-PHENYLACETIC ACID TRIMETHYLSILYL ESTER; EI-MS
Name: TRIMETHYLSILYL DL-ALPHA-(3,4-DI(TRIMETHYLSILOXY)PHENYL)-ALPHA-TRIMETHYLSILOXYACETATE
Formula: C20H40O5Si4
Exact mass: 472.19528
Instrument type: EI-MS
m/z	relative intensity
45	164
73	391
147	102
267	7
355	999
356	551
357	365
358	6
429	96
430	39
457	33
