Mass spectrum: 17BETA-ACETOXY-1BETA-HYDROXY-5ALPHA-ANDROST-2-ENE; EI-MS
Formula: C21H32O3
Exact mass: 332.23514
Instrument type: EI-MS
m/z	relative intensity
29	11
39	9
41	37
43	173
53	12
55	46
57	11
67	39
68	8
69	23
70	183
71	15
77	23
79	60
80	15
81	100
82	11
83	11
91	68
92	23
93	99
94	51
95	84
96	11
97	13
105	79
106	41
107	124
108	42
109	58
110	13
111	13
112	8
117	18
118	14
119	41
120	31
121	79
122	27
123	21
124	27
129	9
130	8
131	64
132	16
133	56
134	30
135	33
137	9
143	11
145	56
146	49
147	91
148	26
149	32
150	15
157	12
158	8
159	54
160	33
161	84
162	20
163	29
171	8
173	64
174	29
175	20
176	11
185	9
187	157
188	28
189	11
199	19
200	9
201	66
202	298
203	999
204	164
205	17
213	10
219	12
220	11
221	65
222	11
239	16
254	21
255	15
257	32
259	9
260	8
261	25
262	250
263	119
264	19
272	52
273	13
314	26
315	11
330	10
332	428
333	100
334	14
