Mass spectrum: ANTHRANILIC ACID METHYL ESTER; EI-MS
Name: METHYL ORTHO AMINO BENZOATE
Formula: C8H9NO2
Exact mass: 151.06333
Instrument type: EI-MS
m/z	relative intensity
27	14
29	23
37	15
38	48
39	165
40	35
41	53
50	20
51	21
52	67
62	27
63	100
64	134
65	399
66	50
90	31
91	106
92	753
93	64
119	999
120	294
121	23
151	412
152	37
