Mass spectrum: 4BETA-FORMYL-1(2H)-METHYLENE-6(7H)-OXO-3,4,4ABETA,5,8,8AALPHA-HEXAHYDRONAPHTHALENE 6-ETHYLENE ACETAL; EI-MS
Formula: C14H20O3
Exact mass: 236.14124
Instrument type: EI-MS
m/z	relative intensity
31	58
32	894
39	115
40	60
41	291
42	401
45	142
51	279
52	118
53	254
54	72
55	867
56	80
58	377
59	60
65	24
66	87
67	286
69	161
73	129
77	426
78	217
79	444
80	140
81	251
87	832
88	262
91	67
92	97
93	259
94	131
95	68
97	52
100	481
101	86
103	7
104	61
105	217
106	79
107	186
108	123
109	150
112	230
115	66
117	94
119	119
120	67
121	153
122	91
125	215
126	62
127	9
131	122
133	82
139	69
145	148
146	291
147	96
151	137
152	145
153	999
154	122
163	83
165	122
167	78
174	70
179	70
206	65
207	67
208	520
236	230
