Mass spectrum: BENZYL FORMATE; EI-MS
Name: FORMIC ACID BENZYL ESTER
Formula: C8H8O2
Exact mass: 136.05243
Instrument type: EI-MS
m/z	relative intensity
26	13
27	47
29	177
31	22
37	14
38	50
39	200
40	12
41	23
49	10
50	125
51	257
52	68
53	26
61	16
62	51
63	127
64	38
65	247
66	13
74	25
75	17
76	16
77	326
78	65
79	323
80	36
89	197
90	804
91	999
92	81
105	36
107	276
108	308
109	20
136	605
137	54
