Mass spectrum: ADIPIC ACID ISOPROPYL ESTER; EI-MS
Formula: C12H22O4
Exact mass: 230.15181
Instrument type: EI-MS
m/z	relative intensity
27	12
41	45
42	21
43	316
44	11
54	10
55	50
56	14
58	69
59	87
60	38
69	26
73	124
74	27
83	70
84	45
87	238
88	12
99	10
100	274
101	161
102	218
103	26
110	11
111	176
112	41
127	10
128	220
129	999
130	78
131	10
142	151
143	22
144	59
145	10
146	49
147	25
170	51
171	526
172	57
188	45
189	31
230	32
