Mass spectrum: 18-METHYLNONADECANOIC ACID METHYL ESTER; EI-MS
Formula: C21H42O2
Exact mass: 326.31848
Instrument type: EI-MS
m/z	relative intensity
43	31
44	10
54	20
55	36
56	97
57	363
60	10
67	5
68	20
69	234
70	27
71	13
73	10
74	999
75	339
77	2
79	17
81	41
82	20
83	14
84	41
85	59
87	835
88	6
91	10
93	20
95	34
97	14
98	41
99	31
101	90
102	1
108	17
109	34
111	66
112	1
113	20
115	31
118	10
119	1
121	20
123	17
125	31
129	8
130	27
134	10
135	10
136	1
139	24
143	279
144	38
149	1
150	13
156	10
157	48
171	6
172	24
185	62
186	13
199	10
200	24
210	10
213	27
214	2
221	10
224	10
225	10
227	9
228	24
237	10
241	66
242	2
253	10
255	45
256	13
262	1
269	17
270	13
271	17
277	2
278	10
279	10
283	136
284	3
295	20
297	10
326	181
327	5
328	10
