Mass spectrum: METHYL PARATHION; EI-MS
Formula: C8H10NO5PS
Exact mass: 263.00173
Instrument type: EI-MS
m/z	relative intensity
263	999
246	150
232	120
231	90
200	150
137	170
125	870
109	860
93	350
79	470
