Mass spectrum: LACTIC ACID BUTYL ESTER; EI-MS
Name: BUTYL 2-HYDROXYPROPANOATE
Formula: C7H14O3
Exact mass: 146.09429
Instrument type: EI-MS
m/z	relative intensity
15	10
19	16
26	14
27	110
28	70
29	205
31	59
39	37
41	241
42	35
43	132
44	27
45	999
46	20
55	33
56	129
57	130
74	48
75	26
85	18
89	34
