Mass spectrum: (Z)-9-HEXADECEN-1-OL; EI-MS
Formula: C16H32O
Exact mass: 240.24532
Instrument type: EI-MS
m/z	relative intensity
40	11
41	217
42	49
43	96
44	523
45	93
46	200
52	1
54	418
55	999
56	231
57	21
58	44
59	44
65	27
66	7
67	615
68	426
69	475
70	14
71	84
72	30
73	74
77	2
79	55
80	43
81	514
82	63
83	258
84	52
85	40
86	1
87	54
88	20
89	97
93	2
95	405
96	469
97	170
98	3
99	14
101	18
102	18
103	5
109	241
110	219
111	65
112	2
117	17
121	12
123	132
124	13
125	23
131	18
133	54
134	1
137	64
138	65
139	11
147	2
151	26
152	29
161	11
163	1
165	21
166	28
177	11
179	1
180	11
194	24
222	73
223	15
