Mass spectrum: CYCLOPENTENE-1-CARBOXAMIDE; EI-MS
Formula: C6H9NO
Exact mass: 111.06841
Instrument type: EI-MS
m/z	relative intensity
18	45
27	24
28	80
30	3
32	20
39	81
40	60
41	25
42	21
44	157
53	41
65	14
66	156
67	786
68	134
82	6
83	19
94	69
95	444
96	9
110	192
111	999
112	86
