Mass spectrum: DIPHENYLTHIOETHER; EI-MS
Name: DIPHENYLSULFIDE
Formula: C12H10S
Exact mass: 186.05032
Instrument type: EI-MS
m/z	relative intensity
27	14
39	58
45	20
50	40
51	170
63	20
65	72
66	17
69	45
74	14
77	108
79	14
92	53
93	20
102	13
108	16
109	43
110	13
115	24
139	16
141	21
152	59
153	33
154	23
171	39
183	18
184	217
185	546
186	999
187	162
188	52
