Mass spectrum: ALLYL PHENYLACETATE; EI-MS
Formula: C11H12O2
Exact mass: 176.08373
Instrument type: EI-MS
m/z	relative intensity
27	15
38	11
39	107
40	10
41	233
50	12
51	25
63	31
64	12
65	117
89	30
90	22
91	999
92	128
118	16
119	25
176	172
177	23
