Mass spectrum: METHYL PARA TOLUATE; EI-MS
Name: PARA TOLUIC ACID METHYL ESTER
Formula: C9H10O2
Exact mass: 150.06808
Instrument type: EI-MS
m/z	relative intensity
15	16
39	79
41	13
50	18
51	29
62	15
63	59
65	180
89	44
90	22
91	355
92	19
119	999
120	82
150	182
151	12
