Mass spectrum: 2,4-DECADIENAL; EI-MS
Formula: C10H16O
Exact mass: 152.12012
Instrument type: EI-MS
m/z	relative intensity
41	78
42	52
43	49
53	58
55	46
56	52
57	130
67	147
68	73
79	89
80	32
81	999
83	208
84	73
85	58
93	72
94	61
95	95
97	64
98	341
136	52
152	121
