Mass spectrum: 4-OXOPENTANOIC ACID; EI-MS
Name: LEVULINIC ACID
Formula: C5H8O3
Exact mass: 116.04734
Instrument type: EI-MS
m/z	relative intensity
15	54
27	53
28	36
29	65
31	10
39	11
42	36
43	999
44	31
45	63
55	62
56	395
57	23
61	17
71	23
73	58
74	16
77	14
99	73
101	28
116	27
