Mass spectrum: 4-METHYLPHENOL; EI-MS
Formula: C7H8O
Exact mass: 108.05751
Instrument type: EI-MS
m/z	relative intensity
51	99
52	51
53	108
54	46
55	30
62	20
63	39
65	21
77	245
78	57
79	201
80	94
89	31
90	79
91	38
106	47
107	999
108	829
109	61
