Mass spectrum: TRANS-2-HEXENYL PROPIONATE; EI-MS
Formula: C9H16O2
Exact mass: 156.11503
Instrument type: EI-MS
m/z	relative intensity
26	11
27	138
28	35
29	293
39	95
40	12
41	197
42	22
43	18
53	40
54	70
55	182
56	40
57	999
58	34
67	218
68	12
75	26
81	29
82	132
83	76
85	11
99	29
100	44
114	13
127	15
156	16
