Mass spectrum: PARA-ISOPROPENYLPHENYLDIMETHYLMETHOXYSILANE; EI-MS
Formula: C12H18OSi
Exact mass: 206.11269
Instrument type: EI-MS
m/z	relative intensity
43	61
45	36
53	18
58	15
59	176
60	14
67	14
89	42
91	28
96	20
105	25
115	34
117	17
119	22
121	18
131	74
145	42
154	18
155	266
175	22
177	41
191	999
192	188
193	52
206	230
207	43
208	12
