Mass spectrum: N-(3-METHACRYLOYLOXY-2-HYDROXY)PROPYL-N'-PHENYL-P-PHENYLENEDIAMINE; EI-MS
Formula: C19H22N2O3
Exact mass: 326.16304
Instrument type: EI-MS
m/z	relative intensity
39	34
41	78
51	28
65	33
69	61
77	43
80	27
92	103
93	30
98	25
106	53
107	46
166	37
167	113
168	58
169	67
170	36
182	27
183	85
184	244
185	36
195	27
196	77
197	999
198	157
326	394
327	94
