Mass spectrum: ETHYLENE GLYCOL DIMETHYL ETHER; EI-MS
Formula: C4H10O2
Exact mass: 90.06808
Instrument type: EI-MS
m/z	relative intensity
28	18
29	53
31	33
43	3
45	999
46	23
58	79
59	3
60	142
90	95
