Mass spectrum: 4-METHOXYCINNAMIC ACID; EI-MS
Name: PARA-METHOXYCINNAMIC ACID
Formula: C10H10O3
Exact mass: 178.06299
Instrument type: EI-MS
m/z	relative intensity
90	13
91	19
103	15
107	23
117	21
118	27
121	36
132	92
133	116
134	12
137	12
147	27
149	11
150	20
160	16
161	242
162	29
163	27
177	147
178	999
179	115
180	11
