Mass spectrum: SEC-BUTYLHYDRAZINE; EI-MS
Formula: C4H12N2
Exact mass: 88.10005
Instrument type: EI-MS
m/z	relative intensity
26	21
27	142
28	177
29	29
30	92
31	169
32	430
33	2
38	8
39	77
40	15
41	19
42	300
43	64
44	45
45	37
46	8
51	7
53	11
54	1
55	26
56	77
57	55
58	3
59	999
60	48
70	13
71	1
72	8
73	108
74	6
87	1
88	200
89	50
