Mass spectrum: 1-HEXANOL; EI-MS
Formula: C6H14O
Exact mass: 102.10447
Instrument type: EI-MS
m/z	relative intensity
40	55
41	704
42	615
43	83
44	71
45	46
51	12
53	3
54	30
55	535
56	999
57	10
58	5
59	5
65	3
67	1
68	6
69	236
70	23
71	2
72	3
73	11
79	2
81	0
83	9
84	32
85	5
