Mass spectrum: 3-OCTANONE; EI-MS
Formula: C8H16O
Exact mass: 128.12012
Instrument type: EI-MS
m/z	relative intensity
15	16
26	29
27	384
28	31
29	750
30	14
39	150
40	13
41	261
42	118
43	999
44	29
53	24
54	11
55	117
56	29
57	917
58	25
71	436
72	556
73	70
85	82
86	20
99	415
100	25
128	80
