Mass spectrum: TETRABROMOPHTHALIC ACID DIMETHYL ESTER; EI-MS
Name: 3,4,5,6-TETRABROMO-1,2-BENZENEDICARBOXYLICACID DIMETHYL ESTER
Formula: C10H6Br4O4
Exact mass: 505.69996
Instrument type: EI-MS
m/z	relative intensity
71	10
72	43
79	21
85	1
95	21
151	32
153	32
168	3
230	10
232	76
233	10
234	1
262	21
311	10
313	10
339	4
341	54
355	10
419	10
433	1
435	32
475	142
477	681
478	5
479	999
480	87
481	648
482	7
483	142
506	32
507	10
508	20
510	318
511	21
512	219
514	32
