Mass spectrum: 2-SEC-BUTYL-1,1-DIMETHYLHYDRAZINE; EI-MS
Formula: C6H16N2
Exact mass: 116.13135
Instrument type: EI-MS
m/z	relative intensity
27	40
28	46
29	54
30	4
31	5
39	13
41	38
42	9
43	57
44	210
45	150
46	2
55	10
56	10
57	28
58	4
59	999
60	100
70	6
71	1
72	16
85	5
86	4
87	17
88	10
101	30
116	290
117	31
