Mass spectrum: 2-ETHYL-1,1-DIMETHYLHYDRAZINE; EI-MS
Formula: C4H12N2
Exact mass: 88.10005
Instrument type: EI-MS
m/z	relative intensity
29	75
30	130
31	46
32	3
36	23
36.5	11
40	9
41	2
42	148
43	117
44	222
45	18
46	33
57	16
58	13
59	999
60	37
71	8
73	98
74	2
87	6
88	464
89	30
