Mass spectrum: 2-HYDROXY-2-PHENYL-1'-DIETHOXYPHOSPHORYLETHYLMETHYLKETONE; EI-MS
Formula: C14H21O5P
Exact mass: 300.11266
Instrument type: EI-MS
m/z	relative intensity
38	135
41	110
42	232
44	85
47	103
50	120
51	355
52	76
65	177
77	999
78	334
79	844
81	478
91	184
96	224
97	204
103	175
104	114
105	295
107	326
109	368
121	90
123	195
125	144
137	82
139	73
152	82
166	40
167	59
179	58
194	33
195	36
283	17
300	11
