Mass spectrum: CIS-PARA-MENTHANE(3,3-D2); EI-MS
Name: CIS-1-METHYL-4-(1-METHYLETHYL)CYCLOHEXANE(3,3-D2)
Formula: C10H20
Exact mass: 140.1565
Instrument type: EI-MS
m/z	relative intensity
44	14
55	167
56	391
57	233
58	23
68	22
69	58
70	81
71	65
72	10
81	19
82	73
83	149
84	38
85	48
96	11
97	207
98	563
99	999
100	103
127	13
142	225
143	27
