Mass spectrum: PHENYLHYDRAZINE; EI-MS
Formula: C6H8N2
Exact mass: 108.06875
Instrument type: EI-MS
m/z	relative intensity
27	25
28	22
29	24
30	1
31	16
37	15
38	32
39	10
40	14
41	17
43	13
50	4
51	113
52	46
53	22
54	4
61	7
62	14
63	49
64	7
65	317
66	36
73	6
74	2
75	9
76	10
77	197
78	14
79	84
80	32
81	14
90	1
91	149
92	349
93	98
105	1
106	19
107	49
108	999
109	79
