Mass spectrum: 2-PROPENYL BENZOATE; EI-MS
Name: ALLYL BENZOATE
Formula: C10H10O2
Exact mass: 162.06808
Instrument type: EI-MS
m/z	relative intensity
26	11
27	28
38	12
39	86
41	75
50	57
51	169
74	14
75	12
76	19
77	383
78	27
105	999
106	82
117	28
162	51
