Mass spectrum: 6-METHYL-4-OXO-1,6,7,8,9,9A-HEXAHYDRO-4H-PYRIDO(1,2-A)PYRIMIDINE-3-CARBOXAMIDE; EI-MS
Formula: C10H15N3O2
Exact mass: 209.11643
Instrument type: EI-MS
m/z	relative intensity
67	60
68	60
69	400
70	14
82	160
83	40
94	60
95	11
96	60
97	550
98	130
108	7
109	30
113	140
122	50
123	999
124	80
135	60
136	80
137	13
138	40
139	90
140	900
152	9
162	40
164	90
165	60
167	6
175	40
177	150
180	60
181	4
190	90
191	120
192	120
194	28
208	470
209	710
210	100
