Mass spectrum: ALLYL FORMATE; EI-MS
Name: 2-PROPENYL FORMATE
Formula: C4H6O2
Exact mass: 86.03678
Instrument type: EI-MS
m/z	relative intensity
15	13
26	57
27	154
28	75
29	325
30	78
31	188
37	33
38	80
39	509
40	175
41	229
42	13
43	32
44	12
47	25
55	28
57	999
58	261
59	11
