Mass spectrum: PIPERONYLIC ACID; EI-MS
Formula: C8H6O4
Exact mass: 166.02661
Instrument type: EI-MS
m/z	relative intensity
26	10
27	13
28	38
29	50
37	30
38	50
39	72
40	10
41	18
42	10
43	10
45	28
50	40
51	55
52	30
53	60
55	10
57	72
60	27
61	40
62	105
63	218
64	30
65	120
66	10
69	58
74	90
79	20
80	10
81	35
82	10
83	10
91	88
92	12
93	10
119	143
120	25
121	132
122	10
149	320
150	40
165	940
166	999
167	95
168	15
