Mass spectrum: SEC-BUTYLBENZENE; EI-MS
Formula: C10H14
Exact mass: 134.10955
Instrument type: EI-MS
m/z	relative intensity
27	46
29	20
39	50
41	30
50	21
51	59
52	16
53	12
63	19
65	29
77	104
78	41
79	86
89	12
91	135
92	11
102	10
103	53
104	29
105	999
106	89
115	18
117	11
119	22
134	197
135	23
