Mass spectrum: CIS-1-PROPENE-1,2,3-TRICARBOXYLIC ACID TRI(TRIMETHYLSILYL) ESTER; EI-MS
Name: TRI(TRIMETHYLSILYL) CIS-1-PROPENE-1,2,3-TRICARBOXYLATE
Formula: C15H30O6Si3
Exact mass: 390.13502
Instrument type: EI-MS
m/z	relative intensity
44	247
45	189
47	171
67	11
73	999
74	101
75	691
77	26
93	136
147	955
148	154
211	20
229	431
285	193
375	202
376	61
