Mass spectrum: 2-ALLYLOXYETHANOL; EI-MS
Name: ETHYLENE GLYCOL MONOALLYL ETHER
Formula: C5H10O2
Exact mass: 102.06808
Instrument type: EI-MS
m/z	relative intensity
15	24
19	25
26	14
27	99
28	23
29	90
30	22
31	281
38	17
39	238
40	40
41	999
42	188
43	141
44	51
45	299
54	10
55	55
56	32
57	188
58	459
59	165
61	42
69	10
71	148
81	22
83	16
85	29
