Mass spectrum: ETHYL ACRYLATE; EI-MS
Formula: C5H8O2
Exact mass: 100.05243
Instrument type: EI-MS
m/z	relative intensity
15	24
26	75
27	381
28	56
29	192
31	21
41	16
43	53
44	16
45	112
53	12
54	37
55	999
56	89
57	13
58	44
72	11
73	71
82	34
84	37
99	56
100	45
