Mass spectrum: TERT-BUTYL 2-METHOXYPHENYL ETHER; EI-MS
Formula: C11H16O2
Exact mass: 180.11503
Instrument type: EI-MS
m/z	relative intensity
77	66
105	115
133	90
137	9
165	999
166	130
179	158
180	284
