Mass spectrum: HEXYL SALICYLATE; EI-MS
Formula: C13H18O3
Exact mass: 222.12559
Instrument type: EI-MS
m/z	relative intensity
29	17
41	40
42	20
43	278
55	45
56	19
57	20
65	19
84	11
92	77
93	10
104	11
120	999
121	163
222	116
223	16
