Mass spectrum: 2-TRIDEUTROMETHYL-3-METHYLTHIOCHROMONE; EI-MS
Formula: C11H10OS
Exact mass: 190.04524
Instrument type: EI-MS
m/z	relative intensity
40	20
41	30
42	15
43	35
44	10
45	40
46	10
47	50
48	10
49	30
50	40
51	30
52	15
53	25
54	10
55	35
56	40
57	30
58	30
59	10
60	10
61	15
62	35
63	60
64	20
65	25
66	15
67	10
68	10
69	135
70	15
71	25
72	10
73	15
74	30
75	30
76	40
77	35
78	15
79	20
80	10
81	25
82	45
83	35
84	195
85	10
86	120
87	15
89	35
90	10
91	10
92	15
93	30
94	20
95	10
96	15
97	15
98	10
99	10
101	10
102	15
103	15
104	20
105	25
106	10
107	20
108	220
109	60
110	30
111	25
112	10
113	10
114	10
115	15
116	15
117	20
118	20
119	25
120	15
121	15
122	10
123	10
124	10
125	25
126	10
127	10
128	15
129	25
130	40
131	60
132	60
133	15
134	10
135	15
136	370
137	150
138	60
139	10
140	10
146	15
147	70
148	75
149	70
150	55
151	30
152	10
158	10
159	160
160	260
161	40
162	20
163	40
164	70
165	80
166	30
167	20
191	20
192	110
193	999
194	125
195	40
