Mass spectrum: BUTYL LACTATE; EI-MS
Formula: C7H14O3
Exact mass: 146.09429
Instrument type: EI-MS
m/z	relative intensity
43	162
44	95
45	999
46	23
53	22
54	131
56	225
69	23
70	32
71	2
73	20
74	83
75	32
85	4
89	75
91	26
128	22
145	32
