Mass spectrum: 6,8-DIMETHYL-4'-METHOXYFLAVANONE; EI-MS
Name: 2-(4-METHOXYPHENYL)-6,8-DIMETHYLCHROMAN-4-ONE
Formula: C18H18O3
Exact mass: 282.12559
Instrument type: EI-MS
m/z	relative intensity
39	20
65	80
77	41
91	29
92	29
119	192
120	253
121	10
134	999
135	127
148	486
149	8
175	22
281	95
282	580
283	100
