Mass spectrum: HEXACHLOROBENZENE; EI-MS
Formula: C6Cl6
Exact mass: 281.81312
Instrument type: EI-MS
m/z	relative intensity
35	125
36	142
37	40
47	13
48	20
49	43
60	65
71	16
72	92
73	50
83	30
95	6
106	93
107	200
108	70
109	5
118	72
120	49
141	60
142	30
143	90
144	163
145	25
146	2
177	80
179	80
181	25
214	11
216	150
218	86
220	20
247	15
249	237
251	150
253	50
282	42
284	999
285	88
286	796
287	6
288	340
289	30
290	80
250	30
