Mass spectrum: TRIMETHYL(PHENYLETHYNYL)SILANE; EI-MS
Formula: C11H14Si
Exact mass: 174.08648
Instrument type: EI-MS
m/z	relative intensity
43	37
105	53
107	11
129	64
130	12
131	30
143	38
144	12
145	15
159	999
160	163
161	45
174	268
175	45
176	12
