Mass spectrum: PIPERINE; EI-MS
Name: 1-PIPEROYLPIPERIDINE
Formula: C17H19NO3
Exact mass: 285.13649
Instrument type: EI-MS
m/z	relative intensity
113	18
115	205
116	98
117	1
136	14
137	138
138	25
143	17
144	94
148	40
150	45
156	2
159	36
164	11
171	92
172	22
173	408
174	305
175	30
200	23
201	996
202	326
203	49
284	10
285	999
286	200
287	25
