Mass spectrum: 1-(4,5-DEHYDROTETRAHYDRO-2-FURANYL)-5-FLUOROURACIL; EI-MS
Formula: C8H7FN2O3
Exact mass: 198.04407
Instrument type: EI-MS
m/z	relative intensity
39	150
40	70
41	250
42	0
43	10
44	40
45	10
51	0
52	10
58	10
59	20
61	0
68	999
69	750
70	120
71	2
79	30
86	10
87	220
88	0
97	20
98	120
99	50
126	2
127	40
130	380
131	80
198	1
199	20
