Mass spectrum: BIS(3,5-DIMETHYLBENZYL)ETHER; EI-MS
Formula: C18H22O
Exact mass: 254.16707
Instrument type: EI-MS
m/z	relative intensity
43	156
44	47
45	619
57	331
58	999
59	45
72	24
73	3
87	73
89	57
102	33
103	20
104	13
131	13
133	19
147	9
