Mass spectrum: 4-METHOXYBENZALDEHYDE; EI-MS
Name: AN1SALDEHYDE
Formula: C8H8O2
Exact mass: 136.05243
Instrument type: EI-MS
m/z	relative intensity
39	123
51	38
64	91
65	177
77	482
78	82
92	281
93	12
107	183
118	11
134	41
135	999
136	804
137	90
