Mass spectrum: 10-UNDECENOIC ACID TRIMETHYLSILYL ESTER; EI-MS
Name: TRIMETHYLSILYL 10-UNDECENOATE
Formula: C14H28O2Si
Exact mass: 256.18586
Instrument type: EI-MS
m/z	relative intensity
44	42
45	100
47	63
55	24
61	63
67	94
69	84
72	5
73	999
74	100
75	984
76	6
77	189
81	94
82	57
83	6
84	78
95	57
96	78
97	6
98	63
116	52
117	731
118	6
124	63
129	310
131	205
132	19
145	142
147	84
166	36
241	54
242	57
