Mass spectrum: 2-ETHOXYETHYL ACETATE; EI-MS
Formula: C6H12O3
Exact mass: 132.07864
Instrument type: EI-MS
m/z	relative intensity
28	11
29	105
31	521
41	32
43	999
44	320
45	101
58	49
59	749
60	26
61	60
70	23
72	719
73	52
74	34
87	120
88	142
89	26
