Mass spectrum: 1,4-DIPHENYLBUTANE-1,4-DIONE; EI-MS
Formula: C16H14O2
Exact mass: 238.09938
Instrument type: EI-MS
m/z	relative intensity
50	16
51	77
55	22
76	11
77	316
78	24
105	999
106	81
133	108
134	11
238	157
239	28
