Mass spectrum: 3-(N-PENTAFLUOROPROPYL)AMINO-1,2,4-TRIAZOLE; EI-MS
Formula: C5H3F5N4O
Exact mass: 230.0227
Instrument type: EI-MS
m/z	relative intensity
50	104
53	96
54	151
55	6
68	242
69	659
83	70
100	14
111	747
119	615
230	999
231	84
