Mass spectrum: BETA-SANTALENE; EI-MS
Name: 2-METHYL-5-(2-METHYL-3-METHYLENEBICYCLO(2.2.1)HEPT-2-YL)-2-PENTENE
Formula: C15H24
Exact mass: 204.1878
Instrument type: EI-MS
m/z	relative intensity
27	66
29	60
39	82
41	365
53	66
55	201
67	126
69	167
77	113
79	226
93	343
94	999
105	94
107	97
121	170
122	346
133	38
135	31
147	19
148	13
161	50
162	6
176	6
189	16
203	13
204	31
