Mass spectrum: ALLYLHYDRAZONE PROPIONALDEHYDE; EI-MS
Name: PROPIONALDEHYDE ALLYLHYDRAZONE
Formula: C6H12N2
Exact mass: 112.10005
Instrument type: EI-MS
m/z	relative intensity
26	23
27	151
28	208
29	14
30	170
31	17
39	102
40	3
41	265
42	78
43	43
44	5
54	51
55	145
56	153
57	3
58	12
69	160
70	208
71	999
72	94
83	208
84	25
85	8
97	15
111	19
112	151
113	25
