Mass spectrum: 3,4-DIMETHOXYBENZOIC ACID TRIMETHYLSILYL ESTER; EI-MS
Formula: C12H18O4Si
Exact mass: 254.09744
Instrument type: EI-MS
m/z	relative intensity
73	110
75	149
77	201
79	9
137	123
165	909
195	999
196	14
239	759
240	110
254	350
255	64
