Mass spectrum: 1-AMINO-4-METHOXYPHENAZINE; EI-MS
Formula: C13H11N3O
Exact mass: 225.09021
Instrument type: EI-MS
m/z	relative intensity
63	150
64	170
65	110
66	80
75	190
76	350
77	300
101	60
102	220
103	180
129	190
130	25
155	150
156	10
168	70
169	5
182	900
183	90
184	20
195	50
196	15
197	5
210	880
211	105
212	30
224	110
225	999
226	140
227	35
