Mass spectrum: ADIPIC ACID DIALLYL ESTER; EI-MS
Name: HEXANEDIOIC ACID DI-2-PROPENYL ESTER
Formula: C12H18O4
Exact mass: 226.12051
Instrument type: EI-MS
m/z	relative intensity
15	18
26	12
27	83
28	88
29	81
31	18
39	192
40	30
41	999
42	50
43	95
53	15
54	22
55	255
56	53
57	72
58	18
59	42
67	28
68	15
69	28
71	12
79	12
80	27
81	107
82	12
83	127
84	77
85	37
95	39
98	14
99	56
100	55
101	106
109	17
111	616
112	39
123	12
127	70
129	100
130	40
131	62
132	22
143	82
158	29
159	358
160	38
161	10
175	11
