Mass spectrum: 5-ALLYL-5-ISOPROPYL-BARBITURIC ACID; EI-MS
Formula: C10H14N2O3
Exact mass: 210.10044
Instrument type: EI-MS
m/z	relative intensity
26	14
27	82
28	391
29	30
30	78
31	19
32	10
33	2
36	14
37	38
38	61
39	44
40	84
41	675
42	118
43	24
44	124
45	11
49	13
50	4
51	82
52	100
53	231
54	7
55	100
56	30
57	19
58	0
59	4
61	10
62	13
63	1
64	18
65	39
66	34
67	1
68	52
69	44
70	54
71	1
75	10
76	14
77	50
78	5
79	120
80	60
81	110
82	4
83	41
84	14
85	13
86	1
91	20
92	4
93	16
94	2
95	24
96	147
97	207
98	4
99	14
100	4
102	2
103	1
104	4
105	11
106	94
107	3
108	54
109	60
110	19
111	1
112	31
113	9
114	4
121	1
122	24
123	18
124	419
125	5
126	40
127	14
128	19
129	1
136	9
137	11
138	14
139	2
140	24
141	34
142	11
143	0
148	10
149	18
150	27
151	4
152	18
153	120
154	29
155	4
156	14
157	8
167	999
168	35
169	210
170	29
171	10
192	1
193	4
194	5
195	154
196	2
197	10
210	20
211	11
212	4
