Mass spectrum: METHYL PHENYLACETATE; EI-MS
Formula: C9H10O2
Exact mass: 150.06808
Instrument type: EI-MS
m/z	relative intensity
15	42
29	18
38	13
39	81
41	13
50	21
51	40
52	12
59	67
62	17
63	62
64	16
65	148
77	11
89	48
90	32
91	999
92	75
105	11
119	14
150	240
151	23
