Mass spectrum: 2-(1-PROPENYL)-6-METHOXYPHENOL; EI-MS
Formula: C10H12O2
Exact mass: 164.08373
Instrument type: EI-MS
m/z	relative intensity
39	76
41	24
51	72
55	51
63	45
65	68
77	200
78	52
91	143
103	221
104	88
105	66
121	226
131	231
132	89
133	85
147	55
149	271
164	999
165	113
