Mass spectrum: ETHYL P-AMINOBENZOATE; EI-MS
Formula: C9H11NO2
Exact mass: 165.07898
Instrument type: EI-MS
m/z	relative intensity
26	120
27	340
28	200
29	300
30	70
37	80
38	100
39	310
40	100
41	140
52	110
62	80
63	190
64	130
65	630
66	120
91	70
92	440
93	90
119	60
120	999
121	120
137	200
165	240
166	30
