Mass spectrum: TRIETHYL ORTHOFORMATE; EI-MS
Name: ORTHOFORMIC ACID TRIETHYL ESTER
Formula: C7H16O3
Exact mass: 148.10994
Instrument type: EI-MS
m/z	relative intensity
29	41
45	12
47	626
63	15
75	527
76	18
103	999
104	59
147	21
148	2
