Mass spectrum: BENZYL BENZOATE; EI-MS
Formula: C14H12O2
Exact mass: 212.08373
Instrument type: EI-MS
m/z	relative intensity
65	13
77	61
78	11
79	32
89	13
90	54
91	307
92	26
105	999
106	89
107	71
167	52
168	11
194	58
195	11
212	417
213	67
