Mass spectrum: ALPHA-PICOLINAMIDE; EI-MS
Formula: C6H6N2O
Exact mass: 122.04801
Instrument type: EI-MS
m/z	relative intensity
16	41
18	13
26	70
27	77
280	71
290	13
370	29
380	44
390	68
400	13
41	11
43	42
44	322
49	41
50	196
51	348
52	399
53	55
67	12
75	37
76	50
77	31
78	361
79	999
80	61
106	17
122	346
123	73
