Mass spectrum: DELTA-VALEROLACTAM; EI-MS
Name: 2-PIPERIDONE
Formula: C5H9NO
Exact mass: 99.06841
Instrument type: EI-MS
m/z	relative intensity
39	120
40	30
41	430
42	36
43	450
44	70
45	30
54	3
55	250
56	130
58	75
59	9
70	240
71	120
73	75
76	7
98	200
99	999
100	100
