Mass spectrum: 1,1-DICHLOROETHYLENE; EI-MS
Formula: C2H2Cl2
Exact mass: 95.95336
Instrument type: EI-MS
m/z	relative intensity
35	92
36	23
37	35
47	6
49	28
59	39
60	189
61	999
62	84
63	319
96	443
98	29
100	41
