Mass spectrum: DELTA-HEXALACTONE; EI-MS
Formula: C6H10O2
Exact mass: 114.06808
Instrument type: EI-MS
m/z	relative intensity
15	33
26	26
27	125
28	27
29	62
39	134
40	47
41	198
42	999
43	229
44	17
53	23
55	194
70	511
71	124
85	16
99	50
114	54
