Mass spectrum: 2,5-DICHLOROANILINE; EI-MS
Formula: C6H5Cl2N
Exact mass: 160.9799
Instrument type: EI-MS
m/z	relative intensity
28	48
37	22
38	13
52	56
61	34
62	75
63	168
65	13
73	45
90	214
91	14
98	12
99	149
101	37
125	83
126	123
128	23
133	27
161	999
162	73
163	674
164	13
165	97
