Mass spectrum: METHYL SALICYLATE; EI-MS
Formula: C8H8O3
Exact mass: 152.04734
Instrument type: EI-MS
m/z	relative intensity
15	57
26	14
27	33
28	1
29	30
37	33
38	94
39	32
40	15
50	36
51	30
52	2
53	86
55	11
61	26
62	6
63	163
64	180
65	278
66	2
75	18
76	15
77	21
78	1
81	24
91	14
92	719
93	16
94	11
120	999
121	314
123	3
152	431
153	41
