Mass spectrum: ISOBUTYL HEXANOATE; EI-MS
Formula: C10H20O2
Exact mass: 172.14633
Instrument type: EI-MS
m/z	relative intensity
27	188
29	276
31	18
39	134
41	433
42	117
43	553
44	13
45	15
53	17
55	126
56	764
57	472
58	19
60	184
61	30
69	29
70	45
71	272
72	14
73	120
74	14
86	11
87	60
89	11
99	999
100	73
116	69
117	292
118	17
129	16
142	11
