Mass spectrum: 2,3-PENTANEDIONE; EI-MS
Formula: C5H8O2
Exact mass: 100.05243
Instrument type: EI-MS
m/z	relative intensity
14	32
15	115
26	69
27	218
28	26
29	591
30	11
39	12
41	13
42	74
43	999
44	30
57	389
58	10
100	114
