Mass spectrum: 1,3-DIMETHYLINDOLE; EI-MS
Formula: C10H11N
Exact mass: 145.08915
Instrument type: EI-MS
m/z	relative intensity
39	66
42	30
50	47
51	78
63	49
72.5	75
76	35
77	112
102	62
103	59
115	57
116	19
129	40
130	40
144	999
145	720
146	70
