Mass spectrum: 4-METHYLENE-5-HEXEN-2-OL; EI-MS
Formula: C7H12O
Exact mass: 112.08882
Instrument type: EI-MS
m/z	relative intensity
42	70
43	314
45	829
50	25
51	50
52	36
53	249
55	25
58	31
65	32
66	38
67	628
68	999
69	166
70	44
73	33
75	28
77	25
79	37
97	199
112	53
