Mass spectrum: ISOBORNYL ACETATE; EI-MS
Name: ACETIC ACID 1,7,7-TRIMETHYLBICYCLO(2.2.1)HEPT-2-OL ESTER
Formula: C12H20O2
Exact mass: 196.14633
Instrument type: EI-MS
m/z	relative intensity
43	493
55	54
57	33
69	126
72	88
80	122
82	193
93	535
95	999
108	377
110	231
121	627
122	59
136	660
137	88
154	121
155	13
