Mass spectrum: 5-NONANONE; EI-MS
Formula: C9H18O
Exact mass: 142.13577
Instrument type: EI-MS
m/z	relative intensity
15	16
26	20
27	290
28	75
29	562
30	12
39	151
40	10
41	487
42	71
43	80
53	24
55	79
56	24
57	999
58	671
59	43
71	56
72	17
85	658
86	27
100	56
113	24
142	63
143	11
