Mass spectrum: CHLOROACETIC ACID ETHYL ESTER; EI-MS
Name: ETHYL CHLOROACETATE
Formula: C4H7ClO2
Exact mass: 122.01346
Instrument type: EI-MS
m/z	relative intensity
14	26
15	29
26	26
27	194
28	233
29	999
30	22
31	13
42	77
43	32
45	41
48	14
49	144
51	44
60	13
73	17
76	12
77	298
78	10
79	97
94	40
95	18
96	12
107	19
122	14
