Mass spectrum: PARA-CRESOL ACETATE; EI-MS
Name: PARA-TOLYL ACETATE
Formula: C9H10O2
Exact mass: 150.06808
Instrument type: EI-MS
m/z	relative intensity
15	45
27	44
28	26
38	11
39	47
43	193
50	27
51	55
52	36
53	33
63	21
65	18
77	98
78	33
79	63
80	39
90	45
91	26
106	11
107	384
108	999
109	81
150	114
151	13
