Mass spectrum: 6-CHLORO-1,2,3,4-TETRAHYDRO-3-METHYL-GAMMA-CARBOLINE; EI-MS
Formula: C12H13ClN2
Exact mass: 220.07673
Instrument type: EI-MS
m/z	relative intensity
42	94
44	23
110	40
115	7
140	35
141	50
142	64
143	8
176	24
177	999
178	133
179	31
180	59
217	29
218	15
219	13
220	200
221	59
222	67
