Mass spectrum: N,N-DIBUTYLNITROSOAMINE; EI-MS
Formula: C8H18N2O
Exact mass: 158.14191
Instrument type: EI-MS
m/z	relative intensity
53	22
56	234
57	999
58	58
70	70
72	42
74	66
83	26
84	621
85	56
86	53
99	78
115	42
116	61
