Mass spectrum: 1,2-BENZENEDIOL; EI-MS
Name: PYROCATECHOL
Formula: C6H6O2
Exact mass: 110.03678
Instrument type: EI-MS
m/z	relative intensity
51	37
52	26
53	87
54	63
55	85
62	25
63	167
64	340
65	28
81	122
82	117
92	107
109	199
110	999
111	69
