Mass spectrum: 2-HYDROXYETHYL ACRYLATE; EI-MS
Name: ACRYLIC ACID 2-HYDROXYETHYL ESTER
Formula: C5H8O3
Exact mass: 116.04734
Instrument type: EI-MS
m/z	relative intensity
15	54
26	39
27	222
28	54
29	118
31	62
42	31
43	75
44	229
45	42
55	999
56	39
57	37
58	72
72	17
73	117
85	65
86	62
99	17
