Mass spectrum: 5-METHYLENE-3-PHENYL-6-HEPTEN-3-OL; EI-MS
Formula: C14H18O
Exact mass: 202.13577
Instrument type: EI-MS
m/z	relative intensity
41	75
43	106
51	86
53	45
57	673
65	42
67	35
68	39
77	239
78	46
79	38
91	140
93	59
105	321
106	36
115	86
117	47
128	48
129	55
135	999
136	102
141	43
153	35
154	45
155	235
156	36
169	76
184	78
202	1
