Mass spectrum: 4,4'-METHYLENE BIS(2,6-DI-TERT-BUTYLPHENOL); EI-MS
Formula: C29H44O2
Exact mass: 424.33413
Instrument type: EI-MS
m/z	relative intensity
29	74
41	182
43	49
55	45
57	516
91	46
105	28
119	33
121	28
128	35
129	48
131	43
133	32
143	29
145	61
147	68
153	41
159	24
161	71
163	27
169	94
170	36
175	42
183	108
185	30
189	33
197	194
203	75
216	25
219	259
220	48
365	93
366	31
367	211
368	66
393	23
395	30
407	106
408	51
409	863
410	261
411	48
422	73
423	52
424	999
425	292
426	59
