Mass spectrum: 4-HYDROXYDIPHENYL; EI-MS
Formula: C12H10O
Exact mass: 170.07316
Instrument type: EI-MS
m/z	relative intensity
63	32
70	14
72	21
75	14
76	24
77	18
84	31
85	7
89	22
102	14
115	111
116	2
139	47
140	14
141	151
142	2
152	20
153	14
168	26
169	8
170	999
171	134
