Mass spectrum: 7-METHOXYISOFLAVANONE; EI-MS
Name: 7-METHOXY-3-PHENYLCHROMAN-4-ONE
Formula: C16H14O3
Exact mass: 254.09429
Instrument type: EI-MS
m/z	relative intensity
28	99
32	20
39	30
51	8
63	56
77	60
78	63
79	8
91	21
92	28
94	23
103	6
104	165
107	129
122	281
149	3
150	999
151	138
254	290
255	42
