Mass spectrum: TETRABUTYLAMMONIUM IODIDE; EI-MS
Formula: C16H36IN
Exact mass: 369.18924
Instrument type: EI-MS
m/z	relative intensity
57	187
84	23
86	34
100	263
126	4
127	40
128	68
142	999
143	116
184	42
185	61
186	10
242	129
254	15
368	1
369	0
611	0
