Mass spectrum: 1-METHOXY-2-PROPANONE; EI-MS
Name: PROPANE-2-ONE-1-METHOXY
Formula: C4H8O2
Exact mass: 88.05243
Instrument type: EI-MS
m/z	relative intensity
27	46
28	154
29	214
31	3
32	33
42	65
43	920
44	3
45	999
46	29
58	418
88	26
