Mass spectrum: ISOBUTYLALDEHYDE; EI-MS
Formula: C4H8O
Exact mass: 72.05751
Instrument type: EI-MS
m/z	relative intensity
27	219
28	68
29	150
39	2
41	441
42	64
43	999
44	5
45	9
55	32
56	46
57	8
71	95
72	559
73	62
