Mass spectrum: BROMOFORM; EI-MS
Formula: CHBr3
Exact mass: 249.76284
Instrument type: EI-MS
m/z	relative intensity
79	74
80	27
81	70
82	27
91	142
92	88
93	137
94	86
158	13
160	26
162	13
171	505
172	15
173	999
174	17
175	495
250	46
252	129
254	128
256	42
