Mass spectrum: BROMOMETHANE; EI-MS
Formula: CH3Br
Exact mass: 93.94181
Instrument type: EI-MS
m/z	relative intensity
79	213
80	43
81	205
82	4
91	90
92	43
93	216
94	999
95	141
96	893
