Mass spectrum: TEREPHTHALALDEHYDIC ACID METHYL ESTER; EI-MS
Name: METHYL PARA-FORMYLBENZOATE
Formula: C9H8O3
Exact mass: 164.04734
Instrument type: EI-MS
m/z	relative intensity
49	9
50	135
51	207
52	3
53	9
62	14
63	17
66	2
75	64
76	96
77	311
78	2
91	9
92	14
103	61
104	6
105	387
106	34
107	17
119	3
120	32
121	9
133	999
134	9
135	103
136	14
163	187
164	54
165	61
