Mass spectrum: N-ACETYLASPARTIC ACID DIMETHYL ESTER; EI-MS
Formula: C8H13NO5
Exact mass: 203.07937
Instrument type: EI-MS
m/z	relative intensity
43	16
10	22
70	22
88	19
101	67
102	832
103	28
143	11
144	999
145	50
160	35
161	9
171	10
172	28
203	14
