Mass spectrum: ALPHA-(TRIMETHYLSILYL)OXY-PHENYLACETIC ACID TRIMETHYLSILYL ESTER; EI-MS
Name: TRIMETHYLSILYL ALPHA-PHENYL-ALPHA-TRIMETHYLSILOXYACETATE
Formula: C14H24O3Si2
Exact mass: 296.1264
Instrument type: EI-MS
m/z	relative intensity
44	44
45	129
73	999
74	10
75	141
77	87
105	56
147	36
148	54
149	56
179	912
180	19
253	80
