Mass spectrum: EUGENOL; EI-MS
Name: 2-METHOXY-4-(2-PROPENYL)PHENOL
Formula: C10H12O2
Exact mass: 164.08373
Instrument type: EI-MS
m/z	relative intensity
39	57
41	30
51	60
55	105
63	25
65	47
77	146
78	40
91	106
103	152
104	97
105	52
121	103
131	192
133	136
137	175
147	47
149	311
164	999
165	111
