Mass spectrum: IODO METHANE; EI-MS
Name: METHYL IODIDE
Formula: CH3I
Exact mass: 141.92794
Instrument type: EI-MS
m/z	relative intensity
15	228
127	184
128	25
139	34
140	33
141	139
1420	999
143	12
