Mass spectrum: PHENYL PROPIONATE; EI-MS
Formula: C9H10O2
Exact mass: 150.06808
Instrument type: EI-MS
m/z	relative intensity
26	22
27	130
28	27
29	402
38	27
39	173
40	18
50	23
51	58
55	21
56	19
57	462
58	14
62	10
63	34
64	13
65	132
66	81
77	62
93	12
94	999
95	72
150	155
151	14
