Mass spectrum: HEXANOIC ACID ISOBUTYL ESTER; EI-MS
Formula: C10H20O2
Exact mass: 172.14633
Instrument type: EI-MS
m/z	relative intensity
15	13
27	154
28	48
29	280
31	20
39	94
40	18
41	348
42	75
43	500
44	16
45	15
53	14
55	93
56	938
57	479
58	21
60	199
61	42
69	29
70	21
71	266
72	16
73	94
74	16
86	15
87	54
89	16
98	10
99	999
100	69
101	10
116	101
117	345
118	24
129	28
142	21
172	6
