Mass spectrum: 4-BROMOBENZYL ALCOHOL; EI-MS
Formula: C7H7BrO
Exact mass: 185.96803
Instrument type: EI-MS
m/z	relative intensity
39	2
41	2
42	2
43	1
50	2
51	4
52	2
53	4
55	1
56	2
57	1
58	3
63	1
67	1
75	4
76	3
77	340
78	128
79	840
80	65
81	3
82	8
89	40
90	27
91	6
92	2
93	2
105	27
106	13
107	999
108	97
109	6
133	1
155	5
156	5
157	98
158	13
159	94
160	7
168	2
169	51
170	7
171	52
172	6
183	9
184	8
185	91
186	732
187	140
188	709
189	66
190	5
