Mass spectrum: BENZYL(TRIMETHYLSILYLMETHYL)AMINE; EI-MS
Formula: C11H19NSi
Exact mass: 193.12868
Instrument type: EI-MS
m/z	relative intensity
43	32
45	79
59	66
60	11
63	15
65	86
72	13
73	569
74	45
75	28
86	15
89	21
90	14
91	999
92	77
100	122
101	15
102	732
103	72
104	30
118	28
119	12
120	145
121	27
133	11
149	10
178	38
179	10
190	10
193	0
