Mass spectrum: 6,6,8-TRIMETHYL-1ALPHA,5ALPHA-BICYCLO(3.3.0)OCTAN-7-EN-2-ONE; EI-MS
Formula: C11H16O
Exact mass: 164.12012
Instrument type: EI-MS
m/z	relative intensity
92	15
107	67
108	463
121	16
122	56
136	80
149	381
150	7
151	15
164	999
165	52
