Mass spectrum: MESITYL OXIDE; EI-MS
Name: 4-METHYL-3-PENTEN-2-ONE
Formula: C6H10O
Exact mass: 98.07316
Instrument type: EI-MS
m/z	relative intensity
15	64
26	15
27	169
28	20
29	342
38	25
39	239
40	25
41	82
42	30
43	466
44	14
50	26
51	35
52	13
53	106
54	18
55	999
56	50
79	18
83	946
84	53
98	410
99	43
