Mass spectrum: HYDROCINNAMIC ACID; EI-MS
Name: 3-PHENYLPROPIONIC ACID
Formula: C9H10O2
Exact mass: 150.06808
Instrument type: EI-MS
m/z	relative intensity
38	13
39	74
40	5
41	12
42	13
45	76
50	49
51	117
52	29
53	14
62	16
63	54
64	11
65	100
66	8
73	5
74	22
75	17
76	17
77	167
78	158
79	93
80	6
89	26
90	10
91	999
92	80
102	19
103	108
104	635
105	212
106	16
107	13
131	19
132	9
133	10
150	484
151	49
152	4
