Mass spectrum: 2-HYDROXY-3-METHOXYBENZALDEHYDE; EI-MS
Formula: C8H8O3
Exact mass: 152.04734
Instrument type: EI-MS
m/z	relative intensity
53	12
65	17
81	13
95	52
106	27
108	36
134	13
151	999
152	990
153	92
