Mass spectrum: BROMOCHLOROMETHANE; EI-MS
Formula: CH2BrCl
Exact mass: 127.90284
Instrument type: EI-MS
m/z	relative intensity
44	54
45	253
47	95
49	999
51	325
73	90
74	85
81	9
88	95
89	40
93	208
95	16
128	520
130	656
132	162
