Mass spectrum: 2-(DIPHENETHYLMETHYL)PYRIDINE; EI-MS
Name: 1,5-DIPHENYL-3-(2-PYRIDYL)PENTANE
Formula: C22H23N
Exact mass: 301.18305
Instrument type: EI-MS
m/z	relative intensity
27	12
39	15
41	10
44	2
51	18
52	10
65	11
77	3
78	55
79	35
91	136
92	3
93	58
103	17
104	31
105	2
106	999
107	80
115	10
117	2
118	33
119	21
194	17
195	1
197	92
198	16
210	39
301	10
