Mass spectrum: 1,2-CYCLOHEXYLENE DIACETATE; EI-MS
Formula: C10H16O4
Exact mass: 200.10486
Instrument type: EI-MS
m/z	relative intensity
19	135
43	170
61	50
69	4
78	90
79	15
81	40
96	32
97	999
98	65
111	50
114	2
115	15
141	220
142	25
157	2
158	20
