Mass spectrum: TETRACHLOROPHTHALIC ANHYDRIDE; EI-MS
Formula: C8Cl4O3
Exact mass: 283.86015
Instrument type: EI-MS
m/z	relative intensity
36	172
47	97
53	45
60	82
68	75
71	408
72	231
73	75
83	38
85	37
87	21
89	146
90	131
91	46
95	73
97	20
106	276
107	745
108	210
109	145
118	105
120	133
121	90
122	47
130	22
135	41
142	496
143	44
144	305
145	20
146	51
177	231
179	228
181	73
205	26
207	25
212	586
213	36
214	751
215	52
216	379
217	25
218	81
240	799
241	62
242	999
243	76
244	479
245	37
246	110
284	485
285	41
286	614
287	56
288	309
289	26
290	63
