Mass spectrum: 4-BENZOYLOXYCYCLOHEXANONE; EI-MS
Formula: C13H14O3
Exact mass: 218.09429
Instrument type: EI-MS
m/z	relative intensity
41	71
42	31
50	92
52	17
67	31
68	185
77	339
78	4
96	646
97	102
105	999
106	8
125	77
134	59
161	43
200	3
218	46
