Mass spectrum: DECANEDIOIC ACID BIS(TRIMETHYLSILYL) ESTER; EI-MS
Name: DI(TRIMETHYLSILYL) DECANEDIOATE
Formula: C16H34O4Si2
Exact mass: 346.19956
Instrument type: EI-MS
m/z	relative intensity
47	86
55	270
69	186
73	999
74	99
75	636
81	80
97	15
117	282
121	131
125	154
129	25
138	80
147	302
149	315
166	9
185	147
204	202
215	446
217	27
315	144
331	826
332	221
333	64
