Mass spectrum: 1-ACETYLCYCLOHEXENE ETHYLENEACETAL; EI-MS
Formula: C10H16O2
Exact mass: 168.11503
Instrument type: EI-MS
m/z	relative intensity
39	108
41	112
42	31
43	86
44	22
45	33
50	13
51	40
52	27
53	95
54	15
55	34
65	31
66	18
67	35
73	24
77	65
78	17
79	92
80	2
81	165
82	13
86	28
87	999
88	50
91	27
93	18
95	30
109	82
125	20
153	404
154	41
