Mass spectrum: BETA-CYCLOCITRAL; EI-MS
Formula: C10H16O
Exact mass: 152.12012
Instrument type: EI-MS
m/z	relative intensity
41	94
43	124
53	65
55	115
56	35
57	32
60	18
67	456
69	56
77	32
78	24
81	324
82	32
91	62
92	21
93	200
95	82
98	27
105	32
107	153
108	29
109	635
110	85
119	121
121	35
123	638
124	59
137	999
138	118
152	832
