Mass spectrum: 2-PENTANOL; EI-MS
Formula: C5H12O
Exact mass: 88.08882
Instrument type: EI-MS
m/z	relative intensity
27	76
28	10
29	93
31	92
39	25
41	112
42	57
43	356
44	227
45	999
46	67
55	545
56	27
57	19
69	12
70	67
71	191
72	14
73	285
74	13
87	25
88	2
