Mass spectrum: 4-TERT-BUTYLMERCAPTOPYRIDINECAPTOPYRIDINE; EI-MS
Formula: C9H13NS
Exact mass: 167.07687
Instrument type: EI-MS
m/z	relative intensity
29	310
32	90
39	240
41	50
51	10
55	60
56	50
57	999
58	60
59	70
67	120
83	1
84	30
110	40
111	840
112	2
113	50
152	40
167	220
168	0
169	15
