Mass spectrum: 1,2,3-TRIMETHOXYPENTANE; EI-MS
Formula: C8H18O3
Exact mass: 162.12559
Instrument type: EI-MS
m/z	relative intensity
39	35
41	193
42	31
43	9
45	417
46	10
47	24
53	7
54	6
55	47
56	11
57	4
58	500
59	187
60	8
64	1
67	17
68	5
69	7
70	1
71	63
72	242
73	999
74	6
75	112
85	134
86	14
87	1
88	36
89	80
97	5
98	1
99	17
101	67
102	7
103	27
104	16
117	46
133	29
