Mass spectrum: 2-METHOXY-6-METHYL-4-PYRONE; EI-MS
Formula: C7H8O3
Exact mass: 140.04734
Instrument type: EI-MS
m/z	relative intensity
40	90
41	70
42	100
43	340
44	50
53	120
59	140
68	50
69	999
70	60
80	50
97	380
98	50
100	140
112	210
125	60
140	630
141	50
