Mass spectrum: 2-NORMAL-PROPYLTHIO-5-AMINOTHIAZOLO(5,4-D)PYRIMIDINE; EI-MS
Formula: C8H10N4S2
Exact mass: 226.03469
Instrument type: EI-MS
m/z	relative intensity
226	500
193	150
184	999
179	70
142	330
125	50
124	40
97	150
85	90
83	60
