Mass spectrum: 3-METHYL-1-BUTYN-3-OL; EI-MS
Formula: C5H8O
Exact mass: 84.05751
Instrument type: EI-MS
m/z	relative intensity
15	47
26	15
27	37
29	16
31	13
37	17
38	29
39	127
40	22
41	97
42	20
43	417
44	13
49	11
50	36
51	43
53	45
55	21
56	13
65	12
67	21
69	27
70	999
71	46
83	68
84	5
