Mass spectrum: M-ETHYLPHENOL; EI-MS
Formula: C8H10O
Exact mass: 122.07316
Instrument type: EI-MS
m/z	relative intensity
15	11
27	54
29	11
38	22
39	116
40	13
41	21
50	26
51	69
52	24
53	44
55	21
60	12
62	16
63	45
64	12
65	60
66	21
77	223
78	41
79	64
81	10
91	68
93	16
94	83
95	13
103	27
105	13
107	999
108	81
121	48
122	524
123	39
