Mass spectrum: CARBON-MONOXIDE; EI-MS
Formula: CO
Exact mass: 27.99491
Instrument type: EI-MS
m/z	relative intensity
12	35
14	17
16	20
28	999
29	12
