Mass spectrum: 7-BENZOYLNEOBAVAISOFLAVONE; EI-MS
Name: 7-BENZOYLOXY-4'-HYDROXY-3'-(3-METHYL-2-BUTENYL)ISOFLAVONE
Formula: C27H22O5
Exact mass: 426.14672
Instrument type: EI-MS
m/z	relative intensity
51	27
70	67
77	506
95	24
105	999
106	106
133	443
321	8
371	8
425	31
426	10
