Mass spectrum: 1,2-DI(2-PROPENYLOXY)BENZENE; EI-MS
Formula: C12H14O2
Exact mass: 190.09938
Instrument type: EI-MS
m/z	relative intensity
26	13
27	31
38	16
39	195
40	11
41	999
42	31
50	16
51	48
52	115
53	24
55	23
63	22
64	15
65	27
77	39
79	15
80	47
81	74
91	23
93	36
103	18
109	98
110	12
119	98
121	96
122	11
149	125
150	11
190	184
191	19
