Mass spectrum: ACETYLACETONE; EI-MS
Formula: C5H8O2
Exact mass: 100.05243
Instrument type: EI-MS
m/z	relative intensity
14	20
15	99
26	24
27	78
28	12
29	51
31	44
37	11
38	18
39	60
40	11
41	67
42	67
43	999
44	24
55	22
58	32
69	13
72	34
85	507
86	24
100	345
101	22
