Mass spectrum: P-TOLUALDEHYDE DIMETHYLACETAL; EI-MS
Formula: C10H14O2
Exact mass: 166.09938
Instrument type: EI-MS
m/z	relative intensity
47	18
50	10
51	24
59	33
63	23
65	67
74	12
75	102
77	18
79	18
89	17
90	9
91	231
92	30
105	36
119	121
120	38
135	999
136	102
165	10
166	31
