Mass spectrum: METHYL (2R,3R,4S)-3-(TERT-BUTYLDIMETHYLSILYLOXY)-2,4-DIMETHYLHEXANOATE; EI-MS
Formula: C15H32O3Si
Exact mass: 288.21207
Instrument type: EI-MS
m/z	relative intensity
43	26
58	33
69	20
75	3
97	37
115	97
125	21
201	16
202	23
231	999
232	145
