Mass spectrum: PYRAZINE; EI-MS
Formula: C4H4N2
Exact mass: 80.03745
Instrument type: EI-MS
m/z	relative intensity
27	47
28	146
38	20
39	45
40	17
50	24
51	120
52	139
53	530
54	22
76	10
77	11
79	10
80	999
81	45
