Mass spectrum: 1,3-DICHLOROBENZENE; EI-MS
Formula: C6H4Cl2
Exact mass: 145.96901
Instrument type: EI-MS
m/z	relative intensity
49	20
50	103
51	37
55	51
56	16
61	14
73	79
74	107
75	205
76	27
84	23
85	26
86	14
109	15
110	23
111	344
112	30
113	112
146	999
147	70
148	641
149	43
150	107
