Mass spectrum: 1,1-DIMETHYL-2-PHENYLETHYL ACETATE; EI-MS
Name: DIMETHYL BENZYL CARBINYL ACETATE
Formula: C12H16O2
Exact mass: 192.11503
Instrument type: EI-MS
m/z	relative intensity
15	24
27	16
29	16
31	12
39	54
41	23
43	999
44	21
51	25
55	20
59	239
63	18
65	78
77	15
78	10
89	16
91	271
92	59
101	78
105	13
115	24
117	80
132	223
133	52
134	42
135	54
