Mass spectrum: PHENYLTHIOMETHYLTRIMETHYLSILANE; EI-MS
Formula: C10H16SSi
Exact mass: 196.0742
Instrument type: EI-MS
m/z	relative intensity
43	46
44	33
45	81
51	38
58	10
59	46
65	25
72	44
73	999
74	90
75	50
77	56
91	112
105	43
109	18
135	87
136	13
137	16
151	25
165	124
166	19
167	16
181	266
182	42
183	23
196	255
197	47
198	24
