Mass spectrum: 1-(TRANS-4-HYDROXYTETRAHYDRO-2-FURANYL)-5-FLUOROURACIL; EI-MS
Formula: C8H9FN2O4
Exact mass: 216.05463
Instrument type: EI-MS
m/z	relative intensity
39	70
40	30
41	250
42	0
43	350
44	100
45	40
54	0
55	40
57	90
58	60
59	1
60	40
68	80
69	230
70	0
71	70
85	40
86	60
87	999
88	120
100	30
113	30
114	1
129	10
130	150
131	80
157	0
158	20
172	30
198	30
216	1
217	20
