Mass spectrum: 2-(4-CHLOROPHENYL)-1,1-DIPHENYLETHENE; EI-MS
Formula: C20H15Cl
Exact mass: 290.08623
Instrument type: EI-MS
m/z	relative intensity
50	24
51	66
74	20
75	4
76	32
77	50
87	21
88	3
89	20
91	33
100	37
101	6
112	39
113	164
114	63
119	3
120	70
125	107
126	277
127	7
139	19
150	21
151	51
152	5
153	11
163	14
164	12
165	8
166	10
175	17
176	117
177	9
178	234
179	67
188	17
199	5
200	21
201	22
202	22
212	1
213	71
214	46
215	43
224	1
225	14
226	42
227	19
228	4
239	169
240	174
241	36
249	3
250	58
251	43
252	270
253	36
254	362
255	482
256	110
275	4
290	999
291	224
292	337
293	62
