Mass spectrum: 5-ACETOXY-1-(4-ACETOXY-3-METHOXYPHENYL)DECAN-3-ONE; EI-MS
Name: 6-GINGEROL DIACETATE
Formula: C21H30O6
Exact mass: 378.20424
Instrument type: EI-MS
m/z	relative intensity
39	8
41	17
43	158
44	2
45	42
55	217
57	50
67	3
69	17
70	33
71	33
81	3
82	17
83	25
84	25
85	2
91	42
95	17
96	17
97	4
98	17
99	17
104	25
107	4
108	25
111	17
117	17
119	8
120	17
121	25
122	25
123	2
124	33
125	58
126	17
129	2
131	33
133	8
135	33
136	16
137	999
138	108
139	8
140	3
141	17
143	25
145	33
149	4
150	542
151	208
152	25
153	2
160	17
161	25
163	33
167	2
175	25
177	50
178	66
179	6
191	25
192	50
193	17
194	3
195	17
196	8
197	8
202	2
205	367
206	42
218	8
219	1
220	8
221	17
222	17
226	2
233	8
239	8
245	8
247	1
249	8
270	8
275	17
276	71
277	142
278	25
294	17
296	1
298	8
299	8
315	8
318	4
319	17
320	8
336	567
337	14
338	17
339	8
368	8
378	5
379	17
