Mass spectrum: 2-NONENAL; EI-MS
Formula: C9H16O
Exact mass: 140.12012
Instrument type: EI-MS
m/z	relative intensity
41	660
42	361
43	999
54	149
55	752
56	337
57	573
58	105
67	209
68	60
69	254
70	716
71	90
72	119
80	27
81	119
82	57
83	421
84	179
85	27
93	93
94	48
96	152
97	93
98	155
107	27
109	27
122	30
