Mass spectrum: BUTYL PHENYLACETATE; EI-MS
Formula: C12H16O2
Exact mass: 192.11503
Instrument type: EI-MS
m/z	relative intensity
27	81
29	251
39	99
41	291
42	14
43	14
50	11
51	29
52	11
55	21
56	21
57	428
58	16
63	43
64	14
65	167
89	47
90	29
91	999
92	323
93	17
119	32
136	184
137	31
192	67
