Mass spectrum: 3,6-DIMETHYL-1,2,3,4-TETRAHYDRO-GAMMA-CARBOLINE; EI-MS
Formula: C13H16N2
Exact mass: 200.13135
Instrument type: EI-MS
m/z	relative intensity
42	42
51	11
77	12
115	2
128	10
154	11
156	100
157	999
158	84
199	48
200	118
