Mass spectrum: 2,6-DIAMINOTOLUENE; EI-MS
Formula: C7H10N2
Exact mass: 122.0844
Instrument type: EI-MS
m/z	relative intensity
30	25
38	24
39	77
41	54
42	36
51	57
52	60
53	45
54	42
61	57
65	64
66	65
67	36
77	150
78	107
79	61
80	60
81	81
92	30
93	133
94	202
95	42
104	240
105	149
106	332
107	131
119	25
120	26
121	547
122	999
123	95
