Mass spectrum: 2-METHYL-5-ACETYLTHIOPHENE; EI-MS
Formula: C7H8OS
Exact mass: 140.02959
Instrument type: EI-MS
m/z	relative intensity
39	10
43	207
44	11
45	138
53	716
54	43
59	49
69	19
71	31
75	17
96	22
97	453
98	42
99	19
111	19
112	45
125	999
126	267
127	268
140	774
141	176
142	106
