Mass spectrum: PROPARGYL BROMIDE; EI-MS
Formula: C3H3Br
Exact mass: 117.94181
Instrument type: EI-MS
m/z	relative intensity
24	12
25	19
26	16
36	31
37	162
38	254
39	999
40	36
79	36
81	36
117	13
118	293
119	21
120	276
121	10
