Mass spectrum: ISOBUTYL FORMATE; EI-MS
Name: 2-METHYLPROPYL FORMATE
Formula: C5H10O2
Exact mass: 102.06808
Instrument type: EI-MS
m/z	relative intensity
26	21
27	296
28	53
29	283
30	13
31	464
32	44
33	10
38	23
40	48
41	712
42	202
43	935
44	32
45	20
53	13
55	82
56	999
57	99
59	85
60	469
61	135
73	14
