Mass spectrum: HEPTADECANE; EI-MS
Formula: C17H36
Exact mass: 240.2817
Instrument type: EI-MS
m/z	relative intensity
40	24
41	448
42	115
43	97
44	41
53	15
54	19
55	20
56	140
57	999
58	44
67	2
68	13
69	76
70	85
71	53
72	28
82	13
83	41
84	4
85	288
86	20
97	26
98	3
99	74
111	12
112	17
113	4
126	12
127	21
140	8
141	1
154	5
155	8
168	4
169	1
182	3
183	5
196	1
197	0
211	1
240	7
241	1
