Mass spectrum: DIALLYL ETHER; EI-MS
Formula: C6H10O
Exact mass: 98.07316
Instrument type: EI-MS
m/z	relative intensity
15	16
26	45
27	153
28	24
29	124
31	60
38	36
39	383
40	59
41	999
42	221
43	64
44	14
45	13
54	137
55	121
56	143
57	108
58	12
68	10
69	146
70	36
83	70
97	11
