Mass spectrum: 3-METHYL-2,5-PIPERAZINEDIONE; EI-MS
Name: CYCLOGLYCYLALANINE
Formula: C5H8N2O2
Exact mass: 128.05858
Instrument type: EI-MS
m/z	relative intensity
28	14
29	10
30	428
31	2
42	12
43	46
44	166
56	4
57	402
58	24
85	999
86	5
100	35
128	278
129	22
