Mass spectrum: P-METHYLACETOPHENONE; EI-MS
Name: 4-METHYLACETOPHENONE
Formula: C9H10O
Exact mass: 134.07316
Instrument type: EI-MS
m/z	relative intensity
15	28
27	24
38	21
39	145
41	26
42	12
43	144
46	10
50	54
51	83
52	15
53	11
62	36
63	115
64	24
65	244
66	12
74	13
75	11
77	26
89	83
90	34
91	750
92	60
105	13
119	999
120	89
134	317
135	26
