Mass spectrum: METHYL HEPTANOATE; EI-MS
Formula: C8H16O2
Exact mass: 144.11503
Instrument type: EI-MS
m/z	relative intensity
15	68
27	122
29	112
31	15
39	94
41	218
42	57
43	322
45	16
53	15
55	138
56	42
57	47
59	153
69	41
73	20
74	999
75	64
83	15
84	40
85	25
87	336
88	36
101	120
113	139
115	23
