Mass spectrum: METHYL 2-TRIMETHYLSILOXY-DODECANOATE; EI-MS
Formula: C16H34O3Si
Exact mass: 302.22772
Instrument type: EI-MS
m/z	relative intensity
31	9
33	2
35	60
36	50
37	26
38	7
39	19
41	16
42	10
43	103
45	11
46	0
47	207
48	97
49	67
50	3
51	9
52	10
53	6
54	1
55	109
56	38
57	57
58	2
59	198
60	5
61	24
67	4
68	13
69	197
70	9
71	5
72	25
73	999
74	95
75	23
76	13
77	9
79	21
81	4
82	15
83	695
84	10
85	46
86	1
87	23
88	9
89	49
90	46
91	57
93	13
95	3
96	15
97	218
98	15
100	1
101	71
102	5
103	224
104	3
105	26
107	13
109	18
111	5
112	11
113	14
114	11
115	3
116	23
117	17
118	13
119	5
120	14
123	10
126	4
128	0
129	78
130	15
131	37
133	0
142	11
143	6
144	1
145	6
146	26
147	9
149	10
157	1
158	6
159	76
160	16
161	1
162	14
172	1
173	11
185	1
187	3
201	9
203	3
207	1
215	3
243	648
244	136
245	3
259	34
287	219
288	47
289	12
