Mass spectrum: 4-CHLORO-N-(2-(DIETHYLAMINO)ETHYL)BENZAMIDE; EI-MS
Formula: C13H19ClN2O
Exact mass: 254.11859
Instrument type: EI-MS
m/z	relative intensity
39	9
42	6
44	3
56	14
57	7
58	129
59	4
70	9
71	27
72	16
84	23
85	7
86	999
87	143
88	3
99	50
100	5
111	3
113	3
139	29
140	2
141	10
182	28
183	3
184	9
254	1
