Mass spectrum: PALMITELADIC ACID TRIMETHYLSILYL ESTER; EI-MS
Name: TRANS-9-HEXADECENOIC ACID TRIMETHYLSILYL ESTER
Formula: C19H38O2Si
Exact mass: 326.26411
Instrument type: EI-MS
m/z	relative intensity
43	172
45	132
54	138
55	67
56	111
67	284
68	115
69	28
73	796
74	142
75	976
79	15
81	200
82	210
83	233
84	22
93	115
95	247
96	250
97	17
98	223
109	108
110	128
117	999
129	664
131	167
132	128
145	22
311	193
312	71
