Mass spectrum: 4'-HYDROXY-6,8-DIMETHYLFLAVONE; EI-MS
Name: 2-(4-HYDROXYPHENYL)-6,8-DIMETHYL-4H-CHROMEN-4-ONE
Formula: C17H14O3
Exact mass: 266.09429
Instrument type: EI-MS
m/z	relative intensity
32	44
39	32
41	22
51	2
63	23
65	55
89	29
91	22
118	67
119	179
120	300
121	4
148	695
149	368
237	23
238	7
265	95
266	999
267	168
