Mass spectrum: 1,4-DIMETHOXYANTHRACENE; EI-MS
Formula: C16H14O2
Exact mass: 238.09938
Instrument type: EI-MS
m/z	relative intensity
39	9
50	10
51	14
52	1
63	40
69	5
74	15
75	3
76	37
77	14
78	33
79	0
81	15
82	37
83	4
86	1
87	13
88	15
89	16
90	0
91	2
96	5
97	1
98	1
99	7
100	2
101	2
102	0
104	6
110	1
111	7
112	0
113	3
115	5
119	164
120	0
124	1
125	10
126	135
127	2
128	1
137	4
138	5
139	1
140	1
141	10
149	2
150	3
151	54
152	219
153	27
154	4
155	3
161	2
162	6
163	6
164	49
165	48
166	9
167	1
169	7
174	1
175	1
176	0
177	6
178	8
179	14
180	16
181	21
182	1
192	1
193	3
194	12
195	154
196	19
197	0
205	1
206	4
207	10
208	16
209	48
210	29
223	999
224	14
238	962
239	135
240	29
241	2
