Mass spectrum: OCTAMETHYLCYCLOTETRASILOXANE; EI-MS
Formula: C8H24O4Si4
Exact mass: 296.07517
Instrument type: EI-MS
m/z	relative intensity
207	10
249	21
251	19
265	52
266	14
267	15
281	999
282	283
283	177
284	36
285	12
296	0
