Mass spectrum: ORTHO NITRO ANILINE; EI-MS
Formula: C6H6N2O2
Exact mass: 138.04293
Instrument type: EI-MS
m/z	relative intensity
26	14
27	41
28	69
30	30
37	37
38	92
39	310
40	28
41	60
42	28
50	43
51	78
52	178
53	72
54	15
61	22
62	51
63	157
64	134
65	999
66	119
74	14
75	15
76	16
77	30
78	24
79	15
80	158
90	36
91	96
92	659
93	45
108	127
121	52
122	21
138	813
139	60
