Mass spectrum: QUINOXALINE; EI-MS
Formula: C8H6N2
Exact mass: 130.0531
Instrument type: EI-MS
m/z	relative intensity
26	32
27	17
28	47
37	34
38	34
39	24
49	17
50	279
51	111
52	81
53	11
62	13
63	17
64	26
65	27
73	12
74	68
75	136
76	565
77	67
102	39
103	559
104	37
129	17
130	999
131	99
