Mass spectrum: N-BENZYL-TRANS-(3-ACETYL-4-PHENYL)PYRROLIDINE; EI-MS
Formula: C19H21NO
Exact mass: 279.16231
Instrument type: EI-MS
m/z	relative intensity
42	634
43	193
51	43
65	153
77	55
91	999
92	88
104	57
105	34
115	108
116	42
117	507
118	80
132	162
133	113
144	41
158	34
160	83
175	325
176	47
188	87
209	145
260	36
279	185
280	39
