Mass spectrum: 1-BENZYL-5-FLUOROURACIL; EI-MS
Formula: C11H9FN2O2
Exact mass: 220.06481
Instrument type: EI-MS
m/z	relative intensity
39	50
41	30
50	20
51	1
52	30
63	40
65	150
77	0
89	50
90	40
91	999
92	1
101	20
110	30
128	20
130	0
148	40
149	20
176	20
177	0
220	450
221	90
