Mass spectrum: META-TERT-BUTYLPHENOL; EI-MS
Formula: C10H14O
Exact mass: 150.10447
Instrument type: EI-MS
m/z	relative intensity
39	70
41	136
76	71
95	15
107	327
135	999
136	103
150	309
