Mass spectrum: DODECYL DODECANOATE; EI-MS
Name: LAURYL LAURATE
Formula: C24H48O2
Exact mass: 368.36543
Instrument type: EI-MS
m/z	relative intensity
41	439
42	130
43	789
53	24
54	53
55	473
56	260
57	699
58	42
59	11
60	86
61	168
67	67
68	113
69	387
70	234
71	351
72	21
73	155
74	10
81	55
82	154
83	368
84	209
85	208
86	10
87	54
89	10
95	50
96	93
97	288
98	185
99	31
101	41
103	11
109	22
110	42
111	198
112	91
113	18
115	40
116	33
124	10
125	86
126	53
127	11
129	68
138	14
139	40
140	145
141	20
143	15
157	60
168	400
169	56
171	21
183	193
184	30
200	174
201	999
202	146
203	13
213	44
229	11
368	55
369	20
