Mass spectrum: ETHYLISOPROPYLHYDRAZONE ACETALDEHYDE; EI-MS
Name: ACETALDEHYDE ETHYLISOPROPYLHYDRAZONE
Formula: C7H16N2
Exact mass: 128.13135
Instrument type: EI-MS
m/z	relative intensity
27	158
28	158
29	285
30	12
39	49
40	18
41	133
42	43
43	170
44	279
45	11
54	1
55	19
56	146
57	69
58	4
68	17
69	21
70	194
71	45
72	48
84	158
85	121
86	1
113	999
114	84
127	10
128	33
129	41
