Mass spectrum: 1,1'-(2,2,2-TRICHLOROETHYLIDENE)-BIS(4-CHLOROBENZENE); EI-MS
Formula: C14H9Cl5
Exact mass: 351.91469
Instrument type: EI-MS
m/z	relative intensity
356	20
354	26
352	20
318	69
316	59
284	58
283	28
282	57
237	820
235	999
212	130
199	170
176	150
165	590
