Mass spectrum: ORTHO NITROTOLUENE; EI-MS
Formula: C7H7NO2
Exact mass: 137.04768
Instrument type: EI-MS
m/z	relative intensity
27	29
30	12
38	31
39	244
40	15
41	61
50	61
51	114
52	33
53	20
61	13
62	46
63	158
64	67
65	999
66	68
77	165
78	35
79	24
89	163
90	68
91	479
92	452
93	70
120	878
121	73
137	50
138	6
