Mass spectrum: 3,3-DIMETHYLHEX-5-EN-2-ONE; EI-MS
Formula: C8H14O
Exact mass: 126.10447
Instrument type: EI-MS
m/z	relative intensity
41	30
43	476
53	28
55	999
56	51
57	38
65	15
67	86
68	14
69	30
71	26
81	16
82	87
83	471
84	35
85	10
93	37
108	106
111	102
126	71
