Mass spectrum: TRANS-STILBENE; EI-MS
Name: TRANS-1,2-DIPHENYLETHYLENE
Formula: C14H12
Exact mass: 180.0939
Instrument type: EI-MS
m/z	relative intensity
39	36
50	30
51	76
52	24
62	13
63	52
64	12
65	14
74	20
75	28
76	128
76.5	15
77	67
78	28
82.5	30
87	11
88	39
89	179
89.5	34
90	48
91	17
102	78
103	16
115	30
126	12
127	11
128	11
139	19
150	11
151	37
152	74
153	21
165	340
166	43
176	51
177	33
178	420
179	771
180	999
181	137
