Mass spectrum: 1,2,3,4-TETRAHYDRO-TRANS-3-METHYLNAPHTHALEN-1-OL; EI-MS
Formula: C11H14O
Exact mass: 162.10447
Instrument type: EI-MS
m/z	relative intensity
91	7
92	7
105	30
118	2
119	20
120	423
121	33
128	1
129	550
130	50
131	3
143	2
144	999
145	120
146	3
147	1
161	120
162	270
163	17
