Mass spectrum: META-CRESOL ACETATE; EI-MS
Name: META-TOLYL ACETATE
Formula: C9H10O2
Exact mass: 150.06808
Instrument type: EI-MS
m/z	relative intensity
15	52
27	37
28	26
38	17
39	68
43	228
50	24
51	51
52	29
53	33
63	23
65	21
77	91
78	31
79	81
80	40
90	45
91	31
106	10
107	290
108	999
109	78
150	152
151	16
