Mass spectrum: PHENOXYETHYL ISOBUTYRATE; EI-MS
Formula: C12H16O3
Exact mass: 208.10994
Instrument type: EI-MS
m/z	relative intensity
27	91
38	11
39	113
40	13
41	106
42	19
43	688
44	23
45	17
50	15
51	75
55	18
63	16
65	107
66	18
71	139
77	211
78	17
79	11
91	28
93	17
94	66
107	16
115	999
116	72
119	11
120	46
121	15
208	17
