Mass spectrum: N-ETHYL-ORTHO-TOLUIDINE; EI-MS
Formula: C9H13N
Exact mass: 135.1048
Instrument type: EI-MS
m/z	relative intensity
15	38
17	19
18	69
26	1
27	91
28	68
29	42
30	2
38	21
39	112
40	11
41	3
42	13
44	10
50	30
51	8
52	48
53	32
54	15
58	4
59	32
60	25
61	20
62	2
63	42
64	18
65	123
66	1
75	12
76	12
77	105
78	4
79	33
80	13
89	39
90	1
91	229
92	50
93	20
104	2
105	16
106	161
117	15
118	7
119	35
120	999
134	60
135	330
