Mass spectrum: PHENYL BUTYRATE; EI-MS
Name: BUTYRIC ACID PHENYL ESTER
Formula: C10H12O2
Exact mass: 164.08373
Instrument type: EI-MS
m/z	relative intensity
26	12
27	156
28	19
29	17
38	27
39	235
40	25
41	153
42	29
43	716
44	20
50	18
51	59
55	75
63	29
64	15
65	153
66	72
70	22
71	486
72	19
77	89
93	16
94	999
95	81
164	157
165	15
