Mass spectrum: 4,4-BIS(PARA-(TRIMETHYLSILYL)OXY-PHENYL)-VALERIC ACID TRIMETHYLSILYL ESTER; EI-MS
Name: TRIMETHYLSILYL 4,4-BIS(PARA-TRIMETHYLSILOXYPHENYL)PENTANOATE
Formula: C26H42O4Si3
Exact mass: 502.23909
Instrument type: EI-MS
m/z	relative intensity
44	204
45	42
73	238
74	3
75	40
135	31
191	70
193	4
219	27
321	62
357	999
358	40
359	191
369	31
487	50
