Mass spectrum: OXEPAN-2-ONE; EI-MS
Formula: C6H10O2
Exact mass: 114.06808
Instrument type: EI-MS
m/z	relative intensity
27	240
28	232
29	184
39	25
40	82
41	581
42	999
43	9
55	951
56	437
57	62
70	19
84	279
114	180
