Mass spectrum: 2-METHYL-5-ETHYLPYRIDINE; EI-MS
Formula: C8H11N
Exact mass: 121.08915
Instrument type: EI-MS
m/z	relative intensity
26	41
27	143
28	80
29	3
37	26
38	41
39	193
40	5
41	37
42	29
50	65
51	13
52	79
53	92
54	33
62	3
63	34
64	34
65	75
66	3
67	36
77	175
78	48
79	13
80	23
91	57
92	39
93	6
94	28
104	28
106	999
107	9
120	172
121	540
