Mass spectrum: 3-METHYLPYRIDINE; EI-MS
Formula: C6H7N
Exact mass: 93.05785
Instrument type: EI-MS
m/z	relative intensity
25	21
26	81
27	87
28	8
31	17
36	28
37	90
38	17
39	513
40	189
41	31
49	3
50	71
51	89
52	41
53	3
54	43
61	37
62	60
63	12
64	60
65	285
66	429
78	4
91	29
92	323
93	999
94	8
107	20
