Mass spectrum: METHYL 2-METHYLBUTYRATE; EI-MS
Formula: C6H12O2
Exact mass: 116.08373
Instrument type: EI-MS
m/z	relative intensity
15	123
26	35
27	226
29	442
30	13
31	25
38	12
39	171
41	540
42	42
43	23
45	24
51	10
53	27
55	115
56	193
57	976
58	46
59	232
60	11
61	13
69	86
73	27
85	314
86	15
87	87
88	999
89	52
101	276
102	12
