Mass spectrum: 1-DECENE-1,10-DICARBOXYLIC ACID BIS(TRIMETHYLSILYL) ESTER; EI-MS
Name: DI(TRIMETHYLSILYL) 2-DODECENEDIOATE
Formula: C18H36O4Si2
Exact mass: 372.21521
Instrument type: EI-MS
m/z	relative intensity
43	103
47	204
49	126
55	20
67	178
69	93
73	999
74	11
75	862
76	82
77	950
79	10
81	342
82	95
95	178
97	8
117	256
129	275
132	91
145	10
147	400
149	157
155	134
164	38
165	180
192	404
193	78
239	16
240	45
313	136
357	90
358	51
