Mass spectrum: PARA-TOLENESULFINAMIDE; EI-MS
Formula: C7H9NOS
Exact mass: 155.04048
Instrument type: EI-MS
m/z	relative intensity
39	246
41	57
45	75
48	53
50	85
51	142
62	73
63	217
64	146
65	399
67	110
77	315
78	107
79	123
89	149
90	68
91	584
92	71
106	146
107	657
108	529
109	109
111	119
139	999
140	99
141	50
155	17
