Mass spectrum: CITRONELLAL; EI-MS
Name: 3,7-DIMETHYL-6-OCTENAL
Formula: C10H18O
Exact mass: 154.13577
Instrument type: EI-MS
m/z	relative intensity
41	520
43	221
55	440
56	398
69	999
70	182
83	156
84	196
95	507
98	117
110	202
111	191
121	227
123	35
136	80
139	70
154	103
155	11
