Mass spectrum: 3-MONOCHLOROMETHYLFLAVANONE; EI-MS
Name: 3-CHLOROMETHYL-2-PHENYLCHROMAN-4-ONE
Formula: C16H13ClO2
Exact mass: 272.06041
Instrument type: EI-MS
m/z	relative intensity
28	99
39	91
50	36
51	8
63	129
64	138
65	89
76	4
77	125
78	75
89	48
91	19
92	491
93	45
103	22
105	2
115	453
116	129
117	810
118	8
120	999
121	591
122	30
149	2
152	93
159	29
195	134
197	3
223	116
235	86
236	102
237	47
238	69
272	435
273	70
274	138
