Mass spectrum: 2,4,6-TRI(ALPHA-METHYLBENZYL(5D))PHENOL; EI-MS
Formula: C30H30O
Exact mass: 406.22967
Instrument type: EI-MS
m/z	relative intensity
83	66
96	68
108	68
109	12
110	420
111	71
154	68
240	7
241	85
311	164
312	83
322	9
323	187
324	66
407	999
408	4
421	586
422	59
