Mass spectrum: DIETHYLBARBITURIC ACID; EI-MS
Formula: C8H12N2O3
Exact mass: 184.08479
Instrument type: EI-MS
m/z	relative intensity
184	70
156	999
155	460
141	860
112	270
98	300
83	320
70	270
69	330
55	660
53	270
44	380
41	880
39	850
