Mass spectrum: PROPANAL DIBENZYL ACETAL; EI-MS
Formula: C17H20O2
Exact mass: 256.14633
Instrument type: EI-MS
m/z	relative intensity
27	12
29	16
39	29
41	1
51	28
63	14
65	101
77	5
78	12
79	30
89	19
90	3
91	999
92	267
93	14
105	1
107	81
108	12
148	15
165	1
181	23
