Mass spectrum: 2-(P-METHOXY-PHENYL)-IMIDAZOLINE; EI-MS
Formula: C10H12N2O
Exact mass: 176.09496
Instrument type: EI-MS
m/z	relative intensity
177	170
176	810
175	530
174	190
159	140
158	100
148	320
147	999
134	150
133	130
132	600
131	90
119	80
117	80
105	50
104	80
103	60
102	60
91	80
90	80
89	70
78	90
77	340
64	70
63	100
42	100
41	70
