Mass spectrum: 2,4-DIHYDROXYACETOPHENONE; EI-MS
Formula: C8H8O3
Exact mass: 152.04734
Instrument type: EI-MS
m/z	relative intensity
41	30
42	29
43	82
51	3
52	24
53	74
54	25
55	4
62	21
63	35
64	10
65	2
69	85
77	27
78	20
79	2
80	22
81	118
82	25
95	2
105	20
108	25
109	45
110	3
123	30
137	999
138	85
139	3
152	460
153	50
154	10
