Mass spectrum: (4AS,5S,8AS)-5ALPHA-ALLYL-8A-METHOXYMETHOXYMETHYL-5BETA-METHYL-3,4,4A,5,6,7,8,8A-OCTAHYDRONAPHTHALEN-1(2H)-ONE; EI-MS
Formula: C17H28O3
Exact mass: 280.20384
Instrument type: EI-MS
m/z	relative intensity
39	119
41	374
43	153
45	999
53	181
55	493
65	83
66	84
67	380
69	170
71	82
77	190
79	444
81	344
83	113
85	104
91	261
93	475
94	393
95	508
97	131
99	89
105	195
107	299
108	279
109	213
111	115
115	54
117	53
119	149
121	241
123	20
125	92
131	72
133	142
135	335
145	116
147	264
149	194
159	206
161	183
163	251
165	147
171	59
175	115
177	304
179	186
189	251
193	123
205	96
208	756
209	624
235	100
239	467
250	96
280	39
