Mass spectrum: 2-CYANO-4-PHENYLPENTANE; EI-MS
Formula: C12H15N
Exact mass: 173.12045
Instrument type: EI-MS
m/z	relative intensity
39	28
41	30
51	31
77	10
78	45
79	75
91	208
103	7
104	48
105	999
106	250
115	2
117	16
119	88
158	22
173	21
174	19
