Mass spectrum: ISOPROPENYL ACETATE; EI-MS
Formula: C5H8O2
Exact mass: 100.05243
Instrument type: EI-MS
m/z	relative intensity
39	16
41	64
42	14
43	999
44	27
67	22
68	242
72	114
100	99
