Mass spectrum: 3-BENZOYLINDOLE; EI-MS
Name: 3-INDOLYL PHENYL KETONE
Formula: C15H11NO
Exact mass: 221.08406
Instrument type: EI-MS
m/z	relative intensity
41	93
43	160
44	17
45	12
55	111
56	22
57	207
60	3
67	19
68	17
69	324
70	3
71	105
73	25
77	99
81	11
82	17
83	52
84	13
85	5
89	90
91	13
95	26
96	1
97	34
105	82
109	12
111	2
115	16
116	28
137	15
143	2
144	376
145	11
149	34
165	1
193	24
204	50
220	184
221	999
222	160
