Mass spectrum: 2-(TRIMETHYLSILYL)OXY-1-NAPHTHOIC ACID TRIMETHYLSILYL ESTER; EI-MS
Formula: C17H24O3Si2
Exact mass: 332.1264
Instrument type: EI-MS
m/z	relative intensity
40	156
43	176
47	176
73	65
75	999
76	117
77	398
93	37
95	98
141	98
144	78
147	33
149	104
317	490
318	137
