Mass spectrum: BENZYL METHYL 4-METHYL-4-OCTENEDIOATE; EI-MS
Formula: C17H22O4
Exact mass: 290.15181
Instrument type: EI-MS
m/z	relative intensity
27	16
28	8
29	16
39	3
40	5
41	50
42	5
43	7
44	5
45	5
51	8
53	2
55	47
59	33
63	8
65	7
66	5
67	44
68	33
69	1
71	16
77	28
78	5
79	7
80	11
81	66
82	27
83	1
85	8
87	5
89	16
90	2
91	999
92	105
93	156
94	2
95	31
97	30
99	19
104	1
105	8
107	31
108	8
110	3
111	23
117	5
120	5
121	35
122	40
123	17
125	47
126	1
127	5
139	42
140	5
143	2
148	8
149	398
150	42
151	3
152	8
153	8
154	8
156	1
157	16
167	20
176	11
181	6
199	164
200	16
212	4
216	2
217	5
230	12
231	4
240	1
241	9
242	3
244	2
258	1
259	4
272	2
273	4
