Mass spectrum: 1-(4,5-DEHYDROTETRAHYDRO-2-FURANYL)-5-FLUORO-3-METHYLURACIL; EI-MS
Formula: C9H9FN2O3
Exact mass: 212.05972
Instrument type: EI-MS
m/z	relative intensity
41	110
68	330
69	370
87	3
88	40
115	40
116	140
126	1
127	30
144	999
145	110
212	1
213	60
