Mass spectrum: METHYL BENZOATE; EI-MS
Formula: C8H8O2
Exact mass: 136.05243
Instrument type: EI-MS
m/z	relative intensity
15	39
27	19
29	35
30	10
38	17
39	25
50	142
51	315
52	15
74	48
75	26
76	47
77	672
78	51
91	17
92	18
105	999
106	78
135	14
136	343
137	27
