Mass spectrum: 2-(P-TOLYL)PYRIDINE; EI-MS
Formula: C12H11N
Exact mass: 169.08915
Instrument type: EI-MS
m/z	relative intensity
39	162
41	72
51	56
63	4
65	42
70.5	32
77	45
78	5
83.5	135
84	30
84.5	14
89	4
91	86
115	60
139	42
140	3
141	56
154	98
166	57
167	29
168	727
169	999
170	135
