Mass spectrum: CIS-3-HEXENOL; EI-MS
Formula: C6H12O
Exact mass: 100.08882
Instrument type: EI-MS
m/z	relative intensity
15	21
26	23
27	241
28	28
29	187
30	11
31	282
38	25
39	319
40	44
41	999
42	226
43	86
44	68
45	21
50	23
51	37
52	14
53	115
54	115
55	386
56	52
57	132
58	10
63	10
65	22
66	13
67	726
68	56
69	232
70	105
71	15
72	23
81	46
82	377
83	23
100	20
