Mass spectrum: DI-N-BUTYLHYDRAZONE ACETONE; EI-MS
Name: ACETONE DIBUTYLHYDRAZONE
Formula: C11H24N2
Exact mass: 184.19395
Instrument type: EI-MS
m/z	relative intensity
27	108
28	105
29	310
30	12
39	68
40	20
41	256
42	20
43	108
44	57
53	8
54	2
55	50
56	368
57	162
58	9
68	11
69	12
70	49
71	3
72	12
83	19
84	57
85	43
86	45
97	11
98	11
99	45
100	35
111	12
127	12
141	999
142	111
169	8
184	128
185	22
