Mass spectrum: PYRENE; EI-MS
Formula: C16H10
Exact mass: 202.07825
Instrument type: EI-MS
m/z	relative intensity
43	11
50	17
51	16
62	19
63	27
67	14
74	46
75	54
76	11
86	18
87	103
88	156
98	19
99	77
100	345
101	378
102	13
150	17
174	25
175	16
198	30
199	44
200	207
201	214
202	999
203	181
204	16
