Mass spectrum: (2S)-N-CARBOBENZOXY-2-(4-(1-ETHOXYETHOXY)-1-OXOBUTYL)PYRROLIDINE; EI-MS
Formula: C20H29NO5
Exact mass: 363.20457
Instrument type: EI-MS
m/z	relative intensity
45	177
70	13
73	858
79	15
83	65
87	18
91	999
101	191
107	36
108	143
151	22
160	960
161	118
204	846
205	67
222	95
230	95
303	24
