Mass spectrum: 9,10-DIHYDRO-2-PHENANTHRYL METHYL KETONE; EI-MS
Formula: C16H14O
Exact mass: 222.10447
Instrument type: EI-MS
m/z	relative intensity
43	90
44	50
57	11
59	1
63	19
75	19
76	78
82	1
88	55
89	95
90	18
96	5
97	26
103	48
104	49
115	1
150	18
151	38
152	50
153	1
176	75
177	64
178	335
179	27
180	40
207	999
208	167
209	2
222	706
223	127
224	15
