Mass spectrum: 3-CHLORO-2-BUTEN-1-OL; EI-MS
Formula: C4H7ClO
Exact mass: 106.01854
Instrument type: EI-MS
m/z	relative intensity
26	20
27	152
28	160
29	8
31	137
32	38
36	10
37	2
38	30
39	202
40	28
41	37
42	54
43	255
44	14
49	2
50	23
51	40
52	12
53	21
54	12
55	23
61	13
63	2
65	13
69	74
70	18
71	999
72	75
89	14
91	52
93	2
105	22
106	46
108	14
