Mass spectrum: CYCLOHEPTANOL; EI-MS
Formula: C7H14O
Exact mass: 114.10447
Instrument type: EI-MS
m/z	relative intensity
15	13
27	170
28	49
29	214
31	77
39	160
40	35
41	334
42	186
43	155
44	252
45	55
53	46
54	139
55	246
56	39
57	999
58	87
66	26
67	193
68	338
69	37
70	124
71	142
72	55
81	365
82	28
83	25
85	51
86	34
95	27
96	157
97	25
113	10
114	12
