Mass spectrum: BUTANAL ISOPENTYL ISOPROPYL ACETAL; EI-MS
Name: BUTANAL ISOAMYL ISOPROPYL ACETAL
Formula: C12H26O2
Exact mass: 202.19328
Instrument type: EI-MS
m/z	relative intensity
27	160
28	16
29	87
31	4
39	53
40	12
41	247
42	5
43	861
44	43
45	43
47	1
53	14
55	327
56	19
57	3
59	11
69	15
70	25
71	999
72	56
73	500
74	29
89	2
115	283
116	22
117	203
118	1
143	55
159	103
