Mass spectrum: 4-BROMO-3,5-DIMETHYLISOXAZOLE; EI-MS
Formula: C5H6BrNO
Exact mass: 174.96328
Instrument type: EI-MS
m/z	relative intensity
26	54
27	249
29	65
30	3
31	23
34	13
36	22
37	3
38	65
39	163
40	77
41	8
42	188
43	999
45	35
48	1
50	25
51	59
52	30
53	4
54	222
55	57
56	21
57	2
58	24
60	19
61	17
62	3
63	57
64	27
65	46
66	42
67	26
68	42
69	19
70	1
71	12
77	16
78	14
79	2
80	22
81	34
82	20
84	1
91	30
92	18
93	34
94	2
95	18
96	33
97	10
99	1
99.5	15
100	19
100.5	12
101	2
102	10
105	32
106	193
107	3
108	188
117	16
118	33
119	2
120	30
128	10
132	135
133	28
134	141
135	277
136	15
146	7
148	65
149	10
160	116
162	11
175	324
176	40
177	324
178	22
