Mass spectrum: CHLOROBENZENE; EI-MS
Formula: C6H5Cl
Exact mass: 112.00798
Instrument type: EI-MS
m/z	relative intensity
37	20
38	50
50	93
51	12
55	40
73	20
74	45
75	5
76	30
77	452
78	30
112	999
113	72
114	330
115	20
