Mass spectrum: N-ACETYLVALYLPHENYLALANYLALANINE METHYL ESTER; EI-MS
Formula: C20H29N3O5
Exact mass: 391.21072
Instrument type: EI-MS
m/z	relative intensity
72	38
102	12
104	31
114	187
115	79
119	38
120	999
121	107
131	28
142	307
143	24
146	36
159	52
174	180
175	25
203	14
232	15
233	364
234	295
235	78
236	12
250	107
251	27
260	16
261	46
262	43
277	33
288	37
289	89
290	18
332	12
347	41
348	24
359	27
360	20
391	290
392	96
393	19
