Mass spectrum: BIS(2-BUTOXYETHYL) ETHER; EI-MS
Formula: C12H26O3
Exact mass: 218.18819
Instrument type: EI-MS
m/z	relative intensity
27	69
28	71
29	322
30	14
31	31
39	28
41	283
42	21
43	45
44	63
45	496
46	11
51	10
55	66
56	361
57	999
58	45
59	143
61	11
63	11
69	22
71	47
72	76
73	39
75	260
83	15
85	175
86	12
87	103
88	12
89	45
