Mass spectrum: DIETHYLHYDRAZONE ACETALDEHYDE; EI-MS
Name: ACETALDEHYDE DIETHYLHYDRAZONE
Formula: C6H14N2
Exact mass: 114.1157
Instrument type: EI-MS
m/z	relative intensity
26	30
27	160
28	195
29	33
30	410
31	10
39	9
40	2
41	48
42	270
43	32
44	18
54	8
55	11
56	200
57	5
58	90
69	9
70	45
71	18
72	15
85	18
99	999
100	6
113	30
114	380
115	32
