Mass spectrum: 1-HEXYL-3,5-DIMETHYLPYRAZOLE; EI-MS
Formula: C11H20N2
Exact mass: 180.16265
Instrument type: EI-MS
m/z	relative intensity
26	11
27	46
28	125
29	12
30	15
39	80
40	25
41	30
42	143
43	89
53	38
54	4
55	175
56	48
57	20
65	2
66	19
67	32
68	52
69	7
70	13
79	15
80	20
81	3
82	29
83	21
95	105
96	51
97	218
98	14
108	28
109	999
110	321
111	23
123	62
124	11
125	11
137	54
138	19
151	23
152	32
166	212
167	30
180	7
181	9
