Mass spectrum: SAFROLE; EI-MS
Formula: C10H10O2
Exact mass: 162.06808
Instrument type: EI-MS
m/z	relative intensity
65	15
77	65
78	68
79	3
91	27
102	13
103	112
104	24
105	51
119	14
131	207
132	10
133	22
134	12
135	156
136	2
161	158
162	999
163	121
164	11
