Mass spectrum: 4,7-DICHLOROBENZOPYLIMIDINE; EI-MS
Formula: C8H4Cl2N2
Exact mass: 197.97515
Instrument type: EI-MS
m/z	relative intensity
36	13
37	43
38	26
49	26
50	158
51	33
61	30
62	32
63	25
64	43
72	19
73	47
74	92
75	133
76	41
81	82
83	26
84	24
85	32
86	24
87	13
98	10
99	90
100	253
101	60
109	39
110	23
111	13
127	11
134	12
135	12
136	238
137	25
138	72
163	999
164	91
165	299
166	29
198	497
199	52
200	326
201	32
202	55
