Mass spectrum: 2-METHYLBENZOIC ACID TRIMETHYLSILYL ESTER; EI-MS
Formula: C11H16O2Si
Exact mass: 208.09196
Instrument type: EI-MS
m/z	relative intensity
43	143
44	232
45	328
47	16
63	143
65	410
71	150
73	16
75	102
81	150
89	157
90	18
91	582
92	157
96	150
118	40
119	999
120	164
147	150
149	41
186	157
193	438
194	150
208	205
