Mass spectrum: PENTYL ACETATE; EI-MS
Name: ACETIC ACID PENTYL ESTER
Formula: C7H14O2
Exact mass: 130.09938
Instrument type: EI-MS
m/z	relative intensity
15	20
27	172
28	79
29	480
30	16
31	394
39	107
40	29
41	557
42	999
43	362
44	170
45	53
53	19
54	19
55	695
56	144
57	221
58	64
61	27
69	59
70	389
71	45
73	16
