Mass spectrum: 1,4-DIMETHOXYBUTANE; EI-MS
Formula: C6H14O2
Exact mass: 118.09938
Instrument type: EI-MS
m/z	relative intensity
39	49
40	20
41	98
42	5
43	64
44	25
45	999
46	3
47	9
53	25
54	7
55	7
56	58
57	16
58	880
59	4
71	101
72	15
75	5
85	4
86	102
87	8
88	15
103	80
