Mass spectrum: METHYL BENZOATE; EI-MS
Formula: C8H8O2
Exact mass: 136.05243
Instrument type: EI-MS
m/z	relative intensity
15	46
27	25
29	13
37	1
38	21
39	31
49	12
50	15
51	330
52	19
74	46
75	3
76	43
77	695
78	51
91	2
93	35
105	999
106	79
135	2
136	365
137	35
