Mass spectrum: TRANS,TRANS-2,4-HEXADIENYL ACETATE; EI-MS
Formula: C8H12O2
Exact mass: 140.08373
Instrument type: EI-MS
m/z	relative intensity
15	45
27	77
29	33
38	12
39	148
40	27
41	234
42	35
43	999
44	21
50	15
51	37
52	31
53	90
54	17
55	39
56	11
63	11
65	43
66	28
67	20
69	75
70	18
77	51
78	14
79	311
80	125
81	183
82	16
83	42
97	50
98	82
140	169
141	13
