Mass spectrum: 2,4,6-TRIMETHYLPYRIDINE; EI-MS
Formula: C8H11N
Exact mass: 121.08915
Instrument type: EI-MS
m/z	relative intensity
27	164
39	275
51	124
77	15
79	268
107	184
120	236
121	999
