Mass spectrum: (1R,2S,5R)-5-METHYL-2-(1-METHYL-1-(2'-NAPHTHYL)ETHYL)-CYCLOHEXANE-1-YL ACRYLATE; EI-MS
Formula: C23H28O2
Exact mass: 336.20893
Instrument type: EI-MS
m/z	relative intensity
32	40
41	40
55	91
69	11
81	14
95	27
115	12
127	0
128	37
129	45
141	139
142	15
149	23
152	22
153	25
154	18
155	43
165	16
167	41
168	90
169	999
170	162
171	11
178	16
179	12
264	18
265	10
336	7
337	17
