Mass spectrum: METHYL 3-PENTENOATE; EI-MS
Formula: C6H10O2
Exact mass: 114.06808
Instrument type: EI-MS
m/z	relative intensity
15	311
16	14
26	27
27	249
28	49
29	357
39	173
40	19
41	44
42	47
43	66
50	17
51	28
53	100
54	145
55	999
56	48
59	379
71	33
72	125
74	17
81	11
82	104
83	85
99	14
114	297
115	20
