Mass spectrum: ALLYL ISOBUTYRATE; EI-MS
Formula: C7H12O2
Exact mass: 128.08373
Instrument type: EI-MS
m/z	relative intensity
15	21
18	24
26	23
27	191
28	18
29	21
38	18
39	211
40	19
41	558
42	46
43	999
44	26
45	12
55	18
57	59
58	25
70	12
71	451
72	17
