Mass spectrum: TRIBUTYL PHOSPHATE; EI-MS
Formula: C12H27O4P
Exact mass: 266.1647
Instrument type: EI-MS
m/z	relative intensity
56	12
57	30
99	999
111	18
125	54
127	20
137	34
153	17
154	14
155	379
156	17
167	22
183	17
209	3
211	243
212	20
266	0
