Mass spectrum: 1-PENTEN-3-OL; EI-MS
Formula: C5H10O
Exact mass: 86.07316
Instrument type: EI-MS
m/z	relative intensity
41	649
43	146
55	71
57	999
58	33
59	16
71	91
86	16
