Mass spectrum: 1-METHOXY-3-METHYLBENZENE; EI-MS
Name: META-METHYLANISOLE
Formula: C8H10O
Exact mass: 122.07316
Instrument type: EI-MS
m/z	relative intensity
15	19
27	47
28	19
38	29
39	132
40	11
41	17
50	51
51	99
52	57
53	56
61	15
62	24
63	59
64	21
65	71
74	12
75	10
77	265
78	83
79	252
80	18
89	24
90	24
91	390
92	175
93	49
107	164
108	15
121	128
122	999
123	88
