Mass spectrum: TRIFLUOPERAZINE; EI-MS
Name: 10-(3-(4-METHYLPIPERAZIN-1-YL)PROPYL)-2-(TRIFLUOROMETHYL)-10H-PHENOTHIAZINE
Formula: C21H24F3N3S
Exact mass: 407.1643
Instrument type: EI-MS
m/z	relative intensity
55	99
56	94
57	65
58	136
69	15
70	760
71	210
72	34
82	11
83	34
84	65
85	71
97	35
98	5
99	53
111	54
113	999
114	99
127	220
141	344
247	13
248	111
266	136
267	121
280	93
281	35
293	17
294	27
306	119
307	75
350	13
407	455
408	87
