Mass spectrum: 4,4'-DIHYDROXYDIPHENYL; EI-MS
Formula: C12H10O2
Exact mass: 186.06808
Instrument type: EI-MS
m/z	relative intensity
39	17
51	28
55	21
63	19
64	19
65	16
70	17
77	3
84	13
93	85
115	29
127	3
128	45
129	29
131	48
139	2
141	18
157	107
158	20
169	2
170	30
185	59
186	999
187	13
188	13
