Mass spectrum: 4-CHLOROBIPHENYL; EI-MS
Formula: C12H9Cl
Exact mass: 188.03928
Instrument type: EI-MS
m/z	relative intensity
51	27
63	52
75	39
76	15
77	30
94	53
126	27
127	3
150	36
151	82
152	294
153	18
154	30
188	999
189	133
190	34
191	49
