Mass spectrum: 2-METHYLLACTIC ACID; EI-MS
Name: ALPHA-HYDROXY ISOBUTYRIC ACID
Formula: C4H8O3
Exact mass: 104.04734
Instrument type: EI-MS
m/z	relative intensity
14	21
15	107
26	16
27	59
28	36
29	75
31	477
38	16
39	88
40	18
41	252
42	59
43	488
44	39
45	57
47	27
58	17
59	999
60	39
89	18
