Mass spectrum: ISOPENTYL ISOBUTYRATE; EI-MS
Formula: C9H18O2
Exact mass: 158.13068
Instrument type: EI-MS
m/z	relative intensity
15	12
27	186
28	47
29	85
39	103
40	16
41	288
42	130
43	999
44	31
45	15
53	13
55	243
56	16
57	17
69	36
70	664
71	565
72	21
73	13
85	11
88	11
89	115
101	15
115	27
