Mass spectrum: N-ISOBUTYLACETAMIDE; EI-MS
Formula: C6H13NO
Exact mass: 115.09971
Instrument type: EI-MS
m/z	relative intensity
15	44
27	36
28	44
29	3
30	999
31	34
39	31
41	7
42	18
43	270
45	12
55	2
56	30
57	16
58	109
60	15
70	229
73	44
101	94
115	8
116	26
