Mass spectrum: N-PIPEROYL-N,N-DIISOPROPYLAMINE; EI-MS
Name: N,N-DIISOPROPYL-5-(3,4-METHYLENEDIOXYPHENYL)-2,4-PENTADIENAMIDE
Formula: C18H23NO3
Exact mass: 301.16779
Instrument type: EI-MS
m/z	relative intensity
143	35
144	22
171	69
173	5
174	487
175	29
201	999
202	17
216	63
286	14
301	317
302	16
