Mass spectrum: 5-METHOXY-1,2-DIMETHYL-6-NITROINDOLE; EI-MS
Formula: C11H12N2O3
Exact mass: 220.08479
Instrument type: EI-MS
m/z	relative intensity
39	66
41	82
42	37
43	11
45	41
51	37
53	27
55	9
56	100
57	68
60	21
63	95
64	27
65	41
66	27
67	2
69	123
71	25
73	23
75	4
76	29
77	125
78	41
81	4
83	25
89	112
90	84
91	12
101	21
102	50
103	82
104	3
115	195
116	112
117	62
118	6
119	45
128	52
129	62
130	13
131	250
132	119
142	110
143	21
144	680
145	90
146	82
147	4
148	25
159	21
160	45
162	4
172	41
173	270
174	19
190	7
205	48
220	999
221	95
