Mass spectrum: 1,3-DIPHENYLPYRAZOLE; EI-MS
Formula: C15H12N2
Exact mass: 220.10005
Instrument type: EI-MS
m/z	relative intensity
27	20
28	21
39	34
41	1
50	24
51	155
52	8
63	4
64	28
65	23
75	12
76	2
77	305
78	28
89	81
90	8
91	26
103	18
104	44
105	1
110	47
115	31
116	52
117	7
118	10
142	10
143	16
144	4
165	37
166	10
178	16
180	1
190	12
191	21
192	58
193	3
205	13
218	65
219	484
220	999
221	174
222	12
