Mass spectrum: HEXAFLUOROISOPROPYL 3ALPHA,6ALPHA,7ALPHA-TRIS(TRIFLUOROACETOXY)-5BETA-CHOLAN-24-OATE; EI-MS
Name: HEXAFLUOROISOPROPYL 3,6,7-TRIS(O-TRIFLUOROACETYL)HYOCHOLATE
Formula: C33H37F15O8
Exact mass: 846.22489
Instrument type: EI-MS
m/z	relative intensity
39	48
41	250
42	40
43	205
44	61
45	27
50	67
51	47
53	101
54	57
55	999
56	62
57	103
59	77
60	19
63	29
65	54
66	26
67	367
68	345
69	545
70	52
71	16
74	19
77	119
78	59
79	26
80	24
82	129
83	258
84	23
85	137
89	26
91	293
92	80
93	457
94	137
95	612
97	61
99	22
104	20
105	358
106	98
107	349
108	81
109	150
110	62
111	50
113	34
115	36
117	111
118	62
119	259
120	63
121	175
122	36
123	87
125	31
126	22
128	32
129	83
130	28
131	163
132	89
133	160
134	39
135	95
136	19
137	196
139	21
141	40
142	37
143	127
144	46
145	195
146	49
147	133
148	18
149	26
151	39
153	34
155	43
156	37
157	177
158	62
159	77
160	50
161	34
169	119
170	27
171	95
172	21
173	52
179	32
181	38
183	77
184	21
185	57
187	30
191	13
195	50
197	221
198	47
199	58
201	31
209	64
210	60
211	213
212	266
213	196
214	54
215	51
216	12
217	19
219	21
221	38
223	28
225	50
226	80
227	90
229	10
232	20
233	70
235	32
237	23
238	11
239	18
251	56
253	85
264	24
271	26
277	38
278	32
290	658
291	97
293	19
297	27
311	97
325	55
326	325
327	173
328	76
329	24
340	149
341	79
344	58
345	30
346	27
353	31
354	50
355	10
367	276
368	59
385	19
395	84
410	20
439	48
440	128
481	73
489	25
504	89
505	141
506	30
547	34
554	118
555	18
568	109
569	17
603	21
618	276
619	134
620	11
661	30
