Mass spectrum: TERT-BUTYL PHENYLACETATE; EI-MS
Name: 1,1-DIMETHYLETHYL PHENYLACETATE
Formula: C12H16O2
Exact mass: 192.11503
Instrument type: EI-MS
m/z	relative intensity
29	47
39	53
41	164
43	2
51	12
57	999
58	37
63	3
65	93
89	36
90	31
91	66
92	196
118	12
119	93
178	2
192	16
