Mass spectrum: CAMPHOR; EI-MS
Name: 2-OXOBORNANE
Formula: C10H16O
Exact mass: 152.12012
Instrument type: EI-MS
m/z	relative intensity
41	240
43	280
55	400
57	8
67	60
69	520
80	100
81	68
83	360
95	999
108	280
109	26
110	140
152	220
