Mass spectrum: 1-PHENYL-2-SEC-BUTYL-1,3-BUTANEDIONE; EI-MS
Formula: C14H18O2
Exact mass: 218.13068
Instrument type: EI-MS
m/z	relative intensity
41	48
43	131
51	58
57	3
69	65
77	271
78	31
91	3
105	999
106	85
120	27
129	2
143	17
145	14
147	340
148	5
161	107
162	422
175	22
176	3
189	17
191	14
218	15
