Mass spectrum: 7-METHOXY(CIS)FLAVAN-4-OL ACETATE; EI-MS
Name: 7-METHOXY-CIS-2-PHENYLCHROMAN-4-YL ACETATE
Formula: C18H18O4
Exact mass: 298.12051
Instrument type: EI-MS
m/z	relative intensity
160	13
161	200
162	20
163	1
207	23
208	5
209	7
210	1
223	23
224	5
225	5
226	0
236	13
237	330
238	999
239	17
240	20
241	30
242	13
243	1
253	7
254	17
255	10
256	11
257	40
258	10
