Mass spectrum: METHYLMALONIC ACID DIMETHYL ESTER; EI-MS
Formula: C6H10O4
Exact mass: 146.05791
Instrument type: EI-MS
m/z	relative intensity
40	122
41	13
43	230
44	1
45	37
55	245
56	214
57	34
58	17
59	999
60	26
72	25
73	10
83	35
86	10
87	35
88	48
91	15
101	85
102	16
114	239
115	754
116	35
146	43
