Mass spectrum: ISOPROPYL PARA HYDROXY BENZOATE; EI-MS
Formula: C10H12O3
Exact mass: 180.07864
Instrument type: EI-MS
m/z	relative intensity
39	21
41	51
42	24
43	94
59	186
65	58
66	13
70	12
71	12
93	94
94	31
95	14
121	999
122	162
123	15
138	532
139	52
165	57
180	88
181	17
