Mass spectrum: 4-PHENYLAZOBENZOIC ACID METHYL ESTER; EI-MS
Name: AZOBENZENE-4-CARBOXYLIC ACID METHYL ESTER
Formula: C14H12N2O2
Exact mass: 240.08988
Instrument type: EI-MS
m/z	relative intensity
50	71
51	138
63	30
64	3
65	27
75	47
76	91
77	999
78	74
79	16
92	44
103	14
104	57
105	400
106	23
119	3
120	67
135	471
136	40
151	2
152	71
153	40
163	94
209	5
240	335
241	50
242	23
