Mass spectrum: N,N-DIETHYLBENZAMIDE; EI-MS
Formula: C11H15NO
Exact mass: 177.11536
Instrument type: EI-MS
m/z	relative intensity
51	35
52	123
53	10
56	21
72	13
76	20
77	399
78	34
105	999
106	82
134	23
148	33
176	204
177	147
178	17
