Mass spectrum: DIETHYLMETHYLSILANE; EI-MS
Formula: C5H14Si
Exact mass: 102.08648
Instrument type: EI-MS
m/z	relative intensity
42	50
43	572
44	95
45	475
46	36
47	17
53	14
55	26
57	22
58	219
59	182
60	12
70	11
71	17
72	370
73	999
74	160
75	38
86	16
87	78
101	90
102	73
103	11
