Mass spectrum: 2-SEC-BUTYLPYRIDINE; EI-MS
Formula: C9H13N
Exact mass: 135.1048
Instrument type: EI-MS
m/z	relative intensity
51	165
78	268
79	194
92	17
93	207
106	663
107	999
120	74
135	31
