Mass spectrum: 4-TERT-BUTYLCYCLOHEXYL ACETATE(EQUATORIAL-AXIAL); EI-MS
Formula: C12H22O2
Exact mass: 198.16198
Instrument type: EI-MS
m/z	relative intensity
41	10
43	36
54	13
55	2
56	418
57	609
58	43
61	48
62	14
67	234
68	21
69	2
70	21
80	956
81	247
82	999
83	480
84	37
94	14
95	7
96	44
97	16
99	38
109	3
110	42
117	65
123	257
124	4
138	429
139	84
141	15
142	6
143	117
144	11
