Mass spectrum: BIS(3-METHOXYBENZYL) ETHER; EI-MS
Formula: C16H18O3
Exact mass: 258.12559
Instrument type: EI-MS
m/z	relative intensity
41	61
43	82
55	69
57	6
60	42
65	42
69	64
71	72
73	54
77	77
78	48
83	5
91	171
92	45
107	60
109	41
121	456
122	999
123	110
125	5
137	36
149	126
156	63
167	60
169	51
227	47
