Mass spectrum: 2-(3-TRIMETHYLSILYLOXYBUTOXY)-N-(2-(DIETHYLAMINO)ETHYL)-3-PYRIDINECARBOXAMIDE; EI-MS
Formula: C19H35N3O3Si
Exact mass: 381.24477
Instrument type: EI-MS
m/z	relative intensity
44	3
56	2
57	4
58	16
70	4
71	16
72	9
73	13
75	1
84	10
85	4
86	999
87	98
88	2
97	2
99	194
100	96
101	7
103	4
113	2
117	7
122	2
129	6
143	2
144	1
165	6
176	2
219	1
221	2
237	4
283	5
309	3
310	3
366	11
367	3
