Mass spectrum: 1-(CIS-4-HYDROXYTETRAHYDRO-2-FURANYL)-5-FLUOROURACIL; EI-MS
Formula: C8H9FN2O4
Exact mass: 216.05463
Instrument type: EI-MS
m/z	relative intensity
39	70
40	20
41	130
42	0
43	300
44	100
45	40
54	0
55	50
57	90
58	60
59	1
60	40
68	70
69	230
70	0
71	80
85	40
86	70
87	999
88	120
100	30
113	30
114	1
129	10
130	150
131	130
132	0
157	40
158	20
172	50
198	0
216	170
217	50
