Mass spectrum: ACETALDEHYDE BUTYL ISOPROPYL ACETAL; EI-MS
Formula: C9H20O2
Exact mass: 160.14633
Instrument type: EI-MS
m/z	relative intensity
15	15
27	113
28	31
29	14
31	26
39	45
41	225
42	3
43	293
44	25
45	999
46	2
55	30
56	27
57	533
58	3
61	29
69	22
73	11
87	53
88	29
101	183
102	14
103	8
145	115
