Mass spectrum: DICHLOROBROMOMETHANE; EI-MS
Formula: CHBrCl2
Exact mass: 161.86387
Instrument type: EI-MS
m/z	relative intensity
47	247
48	169
49	96
50	59
79	64
81	66
83	999
84	7
85	809
86	43
87	118
91	4
127	113
129	144
131	36
