Mass spectrum: ETHYL 4-METHYLPHENYLACETATE; EI-MS
Formula: C11H14O2
Exact mass: 178.09938
Instrument type: EI-MS
m/z	relative intensity
27	77
29	159
31	10
39	3
43	11
51	34
52	14
53	2
63	19
65	25
77	138
78	7
79	89
89	11
91	37
102	1
103	90
104	73
105	999
106	11
133	14
178	198
179	24
