Mass spectrum: 5-ETHYNYLPYRIDINE-2-CARBOXYLIC ACID; EI-MS
Formula: C8H5NO2
Exact mass: 147.03203
Instrument type: EI-MS
m/z	relative intensity
39	48
41	21
43	34
45	12
49	18
50	512
51	256
52	13
62	41
63	70
64	38
73	4
74	207
75	284
76	563
77	8
101	28
102	189
103	999
104	10
147	50
