Mass spectrum: METHYL CINNAMATE; EI-MS
Formula: C10H10O2
Exact mass: 162.06808
Instrument type: EI-MS
m/z	relative intensity
51	58
65	18
77	595
78	75
85	24
91	57
101	12
102	177
103	866
104	114
115	11
116	20
117	35
118	16
130	24
131	999
132	104
133	11
134	13
144	13
161	148
162	397
163	43
