Mass spectrum: CINNAMYL ACETATE; EI-MS
Formula: C11H12O2
Exact mass: 176.08373
Instrument type: EI-MS
m/z	relative intensity
43	999
44	21
55	21
77	28
78	67
79	38
91	109
92	327
93	27
103	28
104	18
105	346
106	44
114	14
115	432
116	418
117	305
118	34
131	17
133	414
134	591
135	64
147	14
148	16
149	11
176	523
177	68
