Mass spectrum: N,N-DIETHYL ETHANOLAMINE; EI-MS
Formula: C6H15NO
Exact mass: 117.11536
Instrument type: EI-MS
m/z	relative intensity
15	33
27	90
28	108
29	133
30	381
31	26
39	21
41	24
42	98
43	31
44	60
45	58
56	82
58	397
70	20
72	36
86	999
87	63
102	65
116	29
117	42
