Mass spectrum: 3,4,5-TRICHLOROPHENYL ACETATE; EI-MS
Formula: C8H5Cl3O2
Exact mass: 237.93551
Instrument type: EI-MS
m/z	relative intensity
35	31
37	18
38	10
42	3
43	999
44	25
49	10
60	1
61	61
62	92
63	15
72	2
73	34
74	22
83	21
84	1
85	13
96	23
97	132
98	1
99	42
107	35
108	11
109	3
132	22
133	43
134	18
135	3
160	22
162	20
167	51
169	5
171	12
196	334
197	27
198	33
199	23
200	102
202	10
238	7
240	66
242	21
