Mass spectrum: 3-METHOXY-3-METHYL-1-BUTANOL; EI-MS
Formula: C6H14O2
Exact mass: 118.09938
Instrument type: EI-MS
m/z	relative intensity
15	26
27	49
28	21
29	60
31	72
33	86
39	49
40	13
41	178
42	27
43	85
45	50
53	42
55	42
56	49
57	25
59	18
69	85
70	10
71	38
72	12
73	999
74	44
85	62
103	95
