Mass spectrum: EXO-7-METHYLBICYCLO(4.1.0)HEPT-2-EN-ENDO-7-PROPANAL; EI-MS
Formula: C11H16O
Exact mass: 164.12012
Instrument type: EI-MS
m/z	relative intensity
18	337
43	35
58	32
78	5
80	73
84	37
91	152
92	10
94	55
104	329
105	51
106	6
107	432
117	49
118	43
119	4
120	999
131	303
163	12
164	48
