Mass spectrum: HEXAMETHYLDISILANE; EI-MS
Formula: C6H18Si2
Exact mass: 146.0947
Instrument type: EI-MS
m/z	relative intensity
28	11
43	6
44	7
45	1
58	11
72	27
73	999
74	9
75	38
115	10
116	5
129	1
131	245
132	42
133	23
145	1
146	178
147	33
148	17
