Mass spectrum: ISOVALERALDEHYDE; EI-MS
Formula: C5H10O
Exact mass: 86.07316
Instrument type: EI-MS
m/z	relative intensity
14	12
15	61
26	28
27	389
28	31
29	364
31	12
37	16
38	36
39	285
40	41
41	741
42	153
43	644
44	999
45	127
50	16
51	16
53	34
55	33
56	21
57	203
58	428
59	19
60	34
68	11
69	12
71	177
85	16
86	74
