Mass spectrum: 1-METHOXY-1-TRIMETHYLSILOXY-2-METHYLPROPENE; EI-MS
Formula: C8H18O2Si
Exact mass: 174.10761
Instrument type: EI-MS
m/z	relative intensity
42	47
43	12
55	30
59	22
69	70
70	999
71	53
72	21
73	627
74	51
75	39
89	331
90	26
91	13
105	44
115	11
143	22
159	127
160	17
173	10
174	574
175	83
176	26
