Mass spectrum: METHYL OXALATE; EI-MS
Formula: C4H6O4
Exact mass: 118.02661
Instrument type: EI-MS
m/z	relative intensity
14	20
15	999
16	12
28	58
29	183
30	45
31	66
33	14
43	41
44	37
45	323
59	932
60	33
91	6
118	39
