Mass spectrum: BUTYL ACETATE; EI-MS
Formula: C6H12O2
Exact mass: 116.08373
Instrument type: EI-MS
m/z	relative intensity
15	60
16	20
17	110
25	1
26	70
27	220
28	80
30	2
38	5
39	70
40	10
41	18
42	40
43	999
44	30
55	7
56	320
57	40
61	120
72	1
73	5
74	120
75	5
85	1
115	10
58	20
