Mass spectrum: TRANS-2-NONENOIC ACID; EI-MS
Formula: C9H16O2
Exact mass: 156.11503
Instrument type: EI-MS
m/z	relative intensity
14	11
15	26
18	51
26	37
27	591
28	52
29	686
30	19
31	36
32	10
38	25
39	550
40	88
41	913
42	385
43	999
44	39
45	139
50	19
51	42
52	29
53	146
54	121
55	611
56	397
57	101
58	30
59	21
60	73
63	11
65	27
66	23
67	126
68	169
69	197
70	141
71	79
72	10
73	685
74	32
77	18
79	25
80	15
81	136
82	49
83	49
84	298
85	37
86	239
87	87
88	33
94	60
95	55
96	260
97	86
98	13
99	152
100	65
101	48
109	51
110	36
113	49
114	50
115	14
123	23
127	33
138	100
139	23
