Mass spectrum: GLYCEROL TRIMYRISTIRATE; EI-MS
Name: TRIMYRISTIN
Formula: C45H86O6
Exact mass: 722.64244
Instrument type: EI-MS
m/z	relative intensity
41	12
42	10
43	39
55	25
56	11
57	80
60	28
69	24
70	12
71	61
73	35
81	15
82	10
83	30
84	86
85	56
95	28
96	10
97	33
98	151
99	20
109	21
111	25
112	71
113	22
117	15
123	12
125	10
126	27
127	11
129	26
140	16
154	18
158	56
159	10
168	10
171	47
185	19
210	92
211	999
212	154
213	20
227	27
228	14
252	23
253	10
283	50
284	40
285	426
286	80
287	10
303	15
311	13
326	185
327	123
328	23
339	96
340	21
381	14
395	40
396	21
409	12
437	10
451	27
452	11
465	12
466	11
481	50
483	17
493	26
495	268
496	662
497	213
498	40
537	15
555	28
556	11
722	7
723	3
