Mass spectrum: ACETHYL VANILLIN; EI-MS
Formula: C10H10O4
Exact mass: 194.05791
Instrument type: EI-MS
m/z	relative intensity
15	83
39	34
41	28
43	469
50	34
51	88
52	58
53	36
63	31
65	41
77	26
79	62
80	26
81	49
95	27
109	73
123	69
137	40
150	49
151	612
152	999
153	91
194	72
