Mass spectrum: 5-TRIMETHYLSILYL-1,2,3,4-TETRAHYDROPYRIMIDINE-2,4-DIONE; EI-MS
Name: 5-TRIMETHYLSILYLURACIL
Formula: C7H12N2O2Si
Exact mass: 184.0668
Instrument type: EI-MS
m/z	relative intensity
43	44
44	20
45	28
47	2
52	15
53	22
55	17
59	2
69	14
70	10
73	19
74	43
75	67
76	16
77	18
83	4
84	11
99	18
100	76
101	1
110	14
112	8
126	18
129	2
149	18
153	9
158	15
169	999
170	111
171	35
184	94
185	12
