Mass spectrum: 2,2'-DIHYDROXY-4-METHOXY-BENZOPHENONE; EI-MS
Formula: C14H12O4
Exact mass: 244.07356
Instrument type: EI-MS
m/z	relative intensity
39	135
41	24
51	57
52	39
53	68
55	26
63	72
64	35
65	186
66	25
69	51
77	41
79	32
80	29
92	67
93	117
94	97
95	94
107	26
108	85
115	21
120	71
121	999
122	131
123	21
124	543
125	46
150	36
151	387
152	26
184	23
227	365
228	62
243	131
244	496
245	73
