Mass spectrum: 2-BENZYL-8-METHYL-1,2,3,4-TETRAHYDRO-GAMMA-CARBOLINE; EI-MS
Formula: C19H20N2
Exact mass: 276.16265
Instrument type: EI-MS
m/z	relative intensity
42	31
43	10
77	11
91	15
115	17
128	12
142	31
156	7
157	999
158	79
183	11
185	1
275	30
276	62
