Mass spectrum: PROPYL 3-(2-FURYL)ACRYLATE; EI-MS
Formula: C10H12O3
Exact mass: 180.07864
Instrument type: EI-MS
m/z	relative intensity
26	14
27	49
28	128
29	33
31	58
32	71
38	25
39	142
41	45
42	28
43	43
44	11
53	16
54	11
55	18
58	13
59	20
60	10
62	12
63	63
64	37
65	277
66	70
81	28
82	42
84	13
92	61
93	42
94	193
95	19
96	13
109	22
110	99
111	12
120	13
121	999
122	69
123	12
138	622
139	46
151	18
180	283
181	28
