Mass spectrum: METHYL PALMITATE; EI-MS
Name: METHYL HEXADECANOATE
Formula: C17H34O2
Exact mass: 270.25588
Instrument type: EI-MS
m/z	relative intensity
41	135
42	26
43	149
44	4
55	113
56	27
57	100
58	5
59	34
67	13
68	8
69	72
70	16
71	40
72	3
73	11
74	999
75	208
81	11
82	7
83	49
84	25
85	20
87	584
88	49
89	4
97	40
98	23
99	5
101	45
102	5
111	16
112	6
115	18
116	9
129	51
130	12
143	125
144	12
157	13
158	3
171	29
172	5
185	31
186	3
199	25
200	4
227	62
228	10
239	38
240	6
241	15
270	138
271	27
272	3
