Mass spectrum: META TOLUIC ACID; EI-MS
Formula: C8H8O2
Exact mass: 136.05243
Instrument type: EI-MS
m/z	relative intensity
27	20
38	18
39	140
41	42
43	27
45	18
50	36
51	54
62	30
63	86
65	204
77	45
79	18
89	63
90	59
91	999
92	168
118	10
119	279
120	18
135	21
136	436
137	34
