Mass spectrum: 8-BENZYL-3A,8A-DIMETHYL-2,3,3A,8A-TETRAHYDROPYRROLO(2,3-B)INDOLE; EI-MS
Formula: C19H22N2
Exact mass: 278.1783
Instrument type: EI-MS
m/z	relative intensity
26	15
27	37
29	12
30	2
38	18
39	86
40	17
41	4
42	40
43	23
50	46
51	10
52	48
53	15
54	12
55	2
56	12
57	12
62	12
63	4
64	16
65	151
66	34
67	1
71	46
74	15
75	16
76	3
77	159
78	133
79	22
80	1
81	11
89	35
90	20
91	999
92	130
93	74
94	14
96	2
101	11
102	25
103	41
104	3
105	23
106	47
108	17
115	7
116	27
117	26
118	18
127	1
128	32
129	21
130	61
131	4
132	19
139	14
142	21
143	6
144	33
145	97
146	46
152	1
154	15
155	185
156	30
157	4
158	28
159	39
160	15
165	1
167	13
168	15
169	14
170	3
171	30
172	39
173	16
174	2
175	36
176	11
180	25
181	2
182	89
183	67
184	13
185	1
187	41
188	17
189	15
198	1
199	22
200	27
201	16
202	3
204	15
206	12
214	114
217	1
218	26
219	11
220	32
222	1
232	15
233	14
234	172
235	34
236	66
246	133
248	53
249	2
263	39
276	15
278	194
279	50
