Mass spectrum: DIALLYL PHTHALATE; EI-MS
Formula: C14H14O4
Exact mass: 246.08921
Instrument type: EI-MS
m/z	relative intensity
27	29
29	23
39	166
41	999
42	38
43	13
50	60
51	16
57	11
65	48
74	12
75	15
76	109
77	29
93	24
98	63
104	112
105	29
115	11
121	18
132	91
149	378
150	33
172	17
188	44
189	121
190	14
