Mass spectrum: 2-PYRAZINECARBOXYLIC ACID; EI-MS
Formula: C5H4N2O2
Exact mass: 124.02728
Instrument type: EI-MS
m/z	relative intensity
25	39
26	341
27	32
28	243
29	11
38	30
39	39
39.5	2
40	29
41	22
42	38
44	2
45	88
50	21
51	208
52	77
53	774
54	35
69	14
70	21
77	25
78	112
79	389
80	999
81	54
106	170
107	80
124	72
125	109
