Mass spectrum: PHENYLETHYL NONANOATE; EI-MS
Formula: C17H26O2
Exact mass: 262.19328
Instrument type: EI-MS
m/z	relative intensity
27	22
39	17
41	52
42	13
43	59
51	12
55	32
57	59
65	14
71	41
77	25
78	17
79	28
91	44
92	13
103	24
104	999
105	265
106	19
141	22
