Mass spectrum: 5-METHYL-2-(1-METHYLETHYL)-PHENOL; EI-MS
Name: THYMOL
Formula: C10H14O
Exact mass: 150.10447
Instrument type: EI-MS
m/z	relative intensity
27	32
29	10
39	64
41	29
50	12
51	35
52	13
53	25
55	11
63	20
65	35
66	13
67	10
68	11
77	74
78	22
79	35
89	11
91	158
92	16
102	10
103	13
105	30
107	52
115	92
116	27
117	75
121	21
133	10
134	16
135	999
136	99
150	295
151	28
