Mass spectrum: CYCLOPENTENE; EI-MS
Formula: C5H8
Exact mass: 68.0626
Instrument type: EI-MS
m/z	relative intensity
15	9
27	81
28	33
29	7
31	2
32	10
38	47
39	250
40	122
41	16
42	71
50	14
51	20
52	1
53	198
54	9
61	13
62	2
63	24
64	5
65	49
66	5
67	999
68	413
69	21
