Mass spectrum: 6,6,9ALPHA-TRIMETHYL-5ALPHA,8BETA-TRICYCLO(6.3.0.0(1,5))UNDEC-10-EN-2-ONE; EI-MS
Formula: C14H20O
Exact mass: 204.15142
Instrument type: EI-MS
m/z	relative intensity
83	17
92	24
105	14
106	2
107	31
108	19
109	21
119	3
120	21
122	12
133	427
134	3
135	107
136	45
147	103
148	96
149	67
151	38
160	31
161	9
162	26
163	19
175	45
176	15
177	12
184	72
185	38
189	85
190	69
202	17
204	999
205	23
206	26
