Mass spectrum: META-METHYLPHENOL; EI-MS
Formula: C7H8O
Exact mass: 108.05751
Instrument type: EI-MS
m/z	relative intensity
26	50
27	188
28	32
29	5
37	49
38	124
39	325
40	4
41	29
42	13
43	21
49	2
50	110
51	180
52	81
53	16
54	65
55	45
56	20
61	2
62	40
63	92
64	29
65	5
66	23
67	15
68	10
74	3
75	30
76	15
77	302
78	9
79	340
80	83
81	23
89	4
90	110
91	72
107	940
108	999
109	81
