Mass spectrum: N-PROPYL N-BUTYL ETHER; EI-MS
Formula: C7H16O
Exact mass: 116.12012
Instrument type: EI-MS
m/z	relative intensity
14	29
15	71
26	39
27	40
28	124
29	397
30	30
31	7
38	33
39	153
40	32
41	43
42	62
43	999
44	50
45	4
55	70
56	82
57	842
58	5
59	32
73	226
74	29
87	12
116	39
