Mass spectrum: 1,1-DIISOBUTYLHYDRAZINE; EI-MS
Formula: C8H20N2
Exact mass: 144.16265
Instrument type: EI-MS
m/z	relative intensity
27	62
28	19
29	154
30	3
31	18
39	49
41	179
42	6
43	58
44	44
45	986
46	2
55	29
56	19
57	371
58	3
59	15
69	10
73	13
84	2
85	12
86	12
87	13
101	999
102	72
129	7
144	141
145	20
