Mass spectrum: DIMETHOXYMETHYLPHENYLSILANE; EI-MS
Formula: C9H14O2Si
Exact mass: 182.07631
Instrument type: EI-MS
m/z	relative intensity
43	18
45	34
51	23
53	12
59	136
60	16
61	14
65	13
74	21
75	91
77	28
78	22
84	25
90	11
91	163
92	14
104	13
105	83
106	10
107	99
108	13
121	55
137	280
138	35
139	14
151	32
167	999
168	137
169	48
182	89
183	17
