Mass spectrum: 4-AMINO-2,3-DIMETHYL-1-PHENYL-3-PYRAZOLIN-5-ONE; EI-MS
Name: AMPYRONE
Formula: C11H13N3O
Exact mass: 203.10586
Instrument type: EI-MS
m/z	relative intensity
51	56
54	46
55	65
56	999
57	720
64	22
69	67
77	82
81	34
82	47
83	372
84	590
85	37
93	39
202	46
203	287
204	42
