Mass spectrum: 3,6-DIACETYL-9-ISOPROPYLCARBAZOLE; EI-MS
Formula: C19H19NO2
Exact mass: 293.14158
Instrument type: EI-MS
m/z	relative intensity
41	284
42	50
44	141
45	3
54	22
55	356
56	118
57	79
58	16
60	25
67	99
68	5
69	402
70	95
71	433
73	3
79	11
80	10
81	170
82	7
83	217
84	58
85	242
93	2
94	11
95	130
96	48
97	18
98	37
99	54
107	17
109	7
110	17
111	90
112	14
113	14
121	15
123	50
124	10
125	4
127	19
131.5	13
135	16
136	1
137	41
138	19
139	26
141	1
149	18
151	17
163	10
164	6
165	60
166	19
167	10
177	1
178	10
179	17
191	25
192	4
193	144
194	100
207	12
219	3
235	110
236	260
237	140
250	12
251	270
252	170
274	44
278	999
279	108
293	455
294	170
