Mass spectrum: N-TRIMETHYLSILYLPHENYLACETYLGLYCINE TRIMETHYLSILYL ESTER; EI-MS
Formula: C16H27NO3Si2
Exact mass: 337.15295
Instrument type: EI-MS
m/z	relative intensity
43	38
44	45
45	148
47	5
56	12
59	38
65	51
72	2
73	999
74	96
75	161
76	1
77	19
86	32
91	306
92	5
100	19
102	270
103	19
104	2
105	12
116	19
117	19
118	3
130	19
131	25
133	19
147	12
148	19
149	12
174	32
176	10
177	12
218	180
219	38
220	15
221	25
246	193
247	51
248	2
294	32
322	51
323	12
336	2
337	103
338	25
