Mass spectrum: 3-OCTYL ACETATE; EI-MS
Name: 1-ETHYLHEXYL ACETATE
Formula: C10H20O2
Exact mass: 172.14633
Instrument type: EI-MS
m/z	relative intensity
15	15
18	11
27	66
29	86
39	30
41	112
42	30
43	999
44	26
55	86
56	63
57	54
58	25
59	21
61	17
69	28
70	62
71	20
73	13
83	67
84	19
101	136
112	54
143	27
