Mass spectrum: 2-(1,1-DIMETHYLETHYL)-4-METHOXYPHENOL; EI-MS
Name: BHA
Formula: C11H16O2
Exact mass: 180.11503
Instrument type: EI-MS
m/z	relative intensity
15	72
27	54
29	43
39	99
41	107
43	35
50	16
51	70
52	47
53	70
54	22
55	52
57	16
62	12
63	40
64	12
65	66
66	21
67	32
68	10
76	13
77	136
78	58
79	61
81	17
82	16
89	14
91	129
92	15
93	21
94	24
95	13
103	41
104	21
105	42
106	13
107	57
108	18
109	38
110	21
115	55
116	19
117	13
119	11
121	35
122	35
123	18
124	76
125	51
131	22
132	18
133	15
135	18
136	12
137	541
138	51
149	44
150	48
151	12
164	12
165	999
166	107
180	526
181	65
