Mass spectrum: 3-CHLOROPHENYL 4-PHENOXYPHENYL KETONE; EI-MS
Name: 3-CHLORO-4'-PHENOXYBENZOPHENONE
Formula: C19H13ClO2
Exact mass: 308.06041
Instrument type: EI-MS
m/z	relative intensity
39	10
44	86
50	15
51	4
59	26
63	10
65	10
75	3
76	18
77	66
111	70
113	2
115	62
139	66
141	108
142	1
154	17
168	10
197	999
198	15
199	13
215	18
273	18
308	53
309	112
310	189
311	35
