Mass spectrum: CERVICARCIN; EI-MS
Formula: C19H20O9
Exact mass: 392.11073
Instrument type: EI-MS
m/z	relative intensity
27	175
28	117
29	363
39	206
41	200
43	309
44	280
58	114
65	125
69	380
91	111
111	108
121	148
147	161
173	117
175	999
176	214
187	345
203	251
204	643
205	109
213	178
214	111
215	254
226	109
242	107
243	368
254	273
255	129
265	375
270	117
271	434
272	149
289	287
306	163
322	136
392	223
