Mass spectrum: 2,2-DIMETHYL-3-VINYLCYCLOPENTANONE; EI-MS
Formula: C9H14O
Exact mass: 138.10447
Instrument type: EI-MS
m/z	relative intensity
42	467
43	144
53	139
54	170
55	318
56	102
59	54
67	757
68	160
69	176
70	379
77	67
79	186
81	733
82	549
83	211
84	51
95	451
96	688
97	98
105	77
109	82
110	75
120	53
123	248
138	999
139	102
