Mass spectrum: PROPANAL ISOPENTYL ISOPROPYL ACETAL; EI-MS
Name: PROPANAL ISOAMYL ISOPROPYL ACETAL
Formula: C11H24O2
Exact mass: 188.17763
Instrument type: EI-MS
m/z	relative intensity
27	76
29	67
31	54
39	4
41	190
42	39
43	672
44	2
45	35
47	10
53	10
55	5
58	26
59	696
60	23
69	1
71	999
72	47
74	10
89	1
101	394
102	25
117	151
129	8
159	95
160	12
