Mass spectrum: 1,1,2-TRICHLOROETHANE; EI-MS
Formula: C2H3Cl3
Exact mass: 131.93003
Instrument type: EI-MS
m/z	relative intensity
25	29
26	102
27	78
35	8
36	23
37	26
47	41
48	3
49	78
60	93
61	547
62	10
63	177
83	760
85	530
87	8
95	50
96	283
97	999
98	21
99	617
100	44
101	98
132	16
134	158
136	49
