Mass spectrum: ETHYLHYDRAZONE METHYLETHYLKETONE; EI-MS
Name: 2-BUTANONE ETHYLHYDRAZONE
Formula: C6H14N2
Exact mass: 114.1157
Instrument type: EI-MS
m/z	relative intensity
27	145
29	200
30	150
31	2
39	55
40	17
41	121
42	999
43	92
44	385
45	34
46	1
53	13
54	26
55	47
56	8
57	42
58	25
68	84
69	3
70	263
71	71
85	66
86	2
99	500
100	40
113	27
114	50
115	53
