Mass spectrum: ACETIC ACID ORTHO-TOLYL ESTER; EI-MS
Name: ORTHO-CRESOL ACETATE
Formula: C9H10O2
Exact mass: 150.06808
Instrument type: EI-MS
m/z	relative intensity
15	20
27	23
28	18
39	47
43	234
50	22
51	49
52	28
53	26
63	17
65	18
77	106
78	33
79	89
80	62
89	18
90	97
91	30
107	330
108	999
109	74
150	108
151	10
