Mass spectrum: 3-METHYL-1-TRIMETHYLSILYLMETHYLSPIRO(3.5)NONAN-5-ONE; EI-MS
Formula: C14H26OSi
Exact mass: 238.17529
Instrument type: EI-MS
m/z	relative intensity
42	54
43	35
45	84
55	51
59	103
67	48
73	824
74	72
75	202
77	37
79	65
81	50
91	71
93	42
105	73
106	32
107	37
111	54
119	30
125	999
126	96
133	50
146	31
147	55
148	52
170	43
183	222
184	35
197	319
198	59
223	69
238	96
