Mass spectrum: 1-PHENYL-1,4-PENTANEDIONE; EI-MS
Formula: C11H12O2
Exact mass: 176.08373
Instrument type: EI-MS
m/z	relative intensity
43	180
50	33
51	125
55	28
63	14
76	18
77	380
78	34
79	20
105	999
106	78
115	86
116	13
128	20
129	26
131	17
133	88
134	40
157	91
158	203
159	38
161	142
162	15
174	15
176	51
