Mass spectrum: 2-PHENYL-5-BENZOYL-1,3,4-OXADIAZOLE; EI-MS
Formula: C15H10N2O2
Exact mass: 250.07423
Instrument type: EI-MS
m/z	relative intensity
50	130
51	250
77	990
103	25
105	999
145	270
164	90
165	1
222	360
223	60
250	280
