Mass spectrum: 0,0'-BIPHENOL; EI-MS
Formula: C12H10O2
Exact mass: 186.06808
Instrument type: EI-MS
m/z	relative intensity
51	94
63	87
64	80
77	84
115	84
127	84
128	141
129	12
131	222
139	127
157	272
158	27
169	84
185	111
186	999
187	138
