Mass spectrum: THIORIDAZINE; EI-MS
Name: 10-(2-(1-METHYL-2-PIPERIZYL)ETHYL)-2-(METHYLTHIO)-10H-PHENOTHIAZINE
Formula: C21H26N2S2
Exact mass: 370.15374
Instrument type: EI-MS
m/z	relative intensity
56	13
68	12
70	74
84	11
96	19
97	18
98	999
99	79
111	11
112	12
124	13
125	5
126	120
127	11
185	22
186	1
198	16
210	10
211	22
212	13
226	21
230	10
244	24
245	40
258	37
259	24
370	199
371	52
372	22
