Mass spectrum: NAPHTHALENE-1,2-DICARBOXYLIC ACID DIMETHYLESTER; EI-MS
Formula: C14H12O4
Exact mass: 244.07356
Instrument type: EI-MS
m/z	relative intensity
114	108
126	125
127	136
154	8
170	119
171	67
185	66
213	999
214	131
244	439
245	85
