Mass spectrum: 2,6-DIPHENYLPYRIDINE; EI-MS
Formula: C17H13N
Exact mass: 231.1048
Instrument type: EI-MS
m/z	relative intensity
77	71
102	115
128	73
155	1
202	78
228	65
229	60
230	60
231	999
232	190
233	17
