Mass spectrum: 4,10-DIMETHYL-7-ISOPROPYL-BICYCLO(4.4.0)DECA-1,4-DIENE; EI-MS
Formula: C15H24
Exact mass: 204.1878
Instrument type: EI-MS
m/z	relative intensity
26	5
27	56
28	73
29	6
31	5
32	26
39	58
40	0
41	215
42	28
43	61
44	1
45	21
50	5
51	20
52	1
53	40
54	5
55	148
56	8
57	26
58	5
63	8
64	1
65	40
66	5
67	26
68	1
69	113
70	38
71	5
73	1
75	5
77	93
78	25
79	7
80	15
81	60
82	13
83	1
84	5
87	5
89	10
90	1
91	216
92	175
93	152
94	2
95	15
97	5
102	8
103	4
104	30
105	680
106	80
107	0
108	5
109	8
115	41
116	2
117	60
118	41
119	999
120	19
121	217
122	47
123	5
127	0
128	26
129	20
130	8
131	2
132	11
133	61
134	30
135	1
136	5
141	6
145	15
146	1
147	48
148	18
149	5
159	4
160	17
161	511
162	73
163	1
204	255
205	43
