Mass spectrum: 2,3-DIMETHYL-1,7-TRIMETHYLENEINDOLE; EI-MS
Formula: C13H15N
Exact mass: 185.12045
Instrument type: EI-MS
m/z	relative intensity
27	23
39	33
41	22
42	1
50	12
51	30
53	11
63	3
64	11
65	20
71.5	16
75	1
76	15
77	46
77.5	31
78	2
78.5	34
83.5	62
84	17
84.5	4
89	25
90	13
90.5	25
91	2
91.5	30
92.5	63
93	11
101	1
102	15
103	11
114	13
115	3
116	20
117	14
127	29
128	5
129	22
130	23
139	16
140	2
141	27
142	66
143	25
144	2
152	15
153	11
154	73
155	3
156	171
157	37
166	16
167	7
168	131
169	71
170	331
171	5
180	47
181	31
182	108
183	6
184	958
185	999
186	141
187	11
