Mass spectrum: PENTAMETHYLBENZENE; EI-MS
Formula: C11H16
Exact mass: 148.1252
Instrument type: EI-MS
m/z	relative intensity
41	12
91	31
105	36
117	25
118	12
119	17
131	17
132	10
133	999
134	112
147	68
148	765
149	91
