Mass spectrum: 5-NONANOL; EI-MS
Formula: C9H20O
Exact mass: 144.15142
Instrument type: EI-MS
m/z	relative intensity
27	103
29	137
31	46
39	52
41	320
42	23
43	112
44	59
45	91
53	11
55	60
56	18
57	105
58	25
69	999
70	61
86	45
87	578
88	27
126	16
