Mass spectrum: DIETHYL SUCCINATE; EI-MS
Formula: C8H14O4
Exact mass: 174.08921
Instrument type: EI-MS
m/z	relative intensity
15	20
18	3
26	18
27	136
28	129
29	399
30	21
31	21
41	4
42	20
43	37
44	5
45	90
47	3
55	147
56	90
57	39
58	1
59	5
60	6
72	6
73	156
74	90
75	17
79	9
83	8
84	6
85	2
99	7
100	46
101	999
102	127
103	12
115	2
128	139
129	599
130	45
131	5
146	1
147	18
174	7
