Mass spectrum: BETA-CYANOETHANOL; EI-MS
Formula: C3H5NO
Exact mass: 71.03711
Instrument type: EI-MS
m/z	relative intensity
14	36
15	149
17	21
18	76
26	39
27	43
28	46
29	145
30	18
31	999
38	16
39	25
40	63
41	690
42	80
43	29
45	27
51	23
52	27
59	19
