Mass spectrum: 2-METHYL-2-PROPANOL; EI-MS
Name: TERT-BUTYL ALCOHOL
Formula: C4H10O
Exact mass: 74.07316
Instrument type: EI-MS
m/z	relative intensity
15	58
26	14
27	69
28	1
29	79
31	350
38	13
39	7
41	214
42	21
43	131
55	1
56	14
57	93
59	999
60	34
