Mass spectrum: 1(2H)-METHYLENE-(4BETA)-VINYL-3,4,(4ABETA),5,8,(8AALPHA)-HEXAHYDRONAPHTHALENE-6(7H)-ONE ETHYLENE ACETAL; EI-MS
Formula: C15H22O2
Exact mass: 234.16198
Instrument type: EI-MS
m/z	relative intensity
32	633
39	42
40	53
41	7
42	66
43	38
44	50
53	4
55	134
65	26
67	39
73	3
77	57
79	74
80	24
86	2
87	33
91	72
93	26
99	999
100	68
105	36
107	37
112	4
120	23
151	131
152	39
178	14
179	25
180	42
206	28
234	1
235	24
