Mass spectrum: 3-METHYLBUTANOIC ACID; EI-MS
Name: ISOVALERIC ACID
Formula: C5H10O2
Exact mass: 102.06808
Instrument type: EI-MS
m/z	relative intensity
15	13
26	12
27	140
28	38
29	72
31	13
38	12
39	111
40	20
41	359
42	101
43	456
44	63
45	190
53	10
55	27
56	30
57	24
59	29
60	999
61	64
69	87
84	47
85	13
87	121
