Mass spectrum: PINACOLIN; EI-MS
Name: 3,3-DIMETHYL-2-BUTANONE
Formula: C6H12O
Exact mass: 100.08882
Instrument type: EI-MS
m/z	relative intensity
15	45
27	49
28	24
29	420
39	81
40	12
41	563
42	35
43	326
55	37
56	66
57	999
58	44
67	10
69	10
85	46
100	168
101	14
