Mass spectrum: 4,5-DIMETHYLTHIAZOLE; EI-MS
Formula: C5H7NS
Exact mass: 113.02992
Instrument type: EI-MS
m/z	relative intensity
26	38
27	100
29	28
30	1
31	25
37	13
38	20
39	8
40	19
41	61
42	40
43	3
45	232
46	28
47	16
50	4
51	55
52	33
53	88
54	3
55	28
57	24
58	80
59	13
60	23
68	16
69	62
70	2
71	709
72	71
73	37
80	2
84	13
85	234
86	238
87	3
88	13
98	93
99	10
112	13
113	999
114	73
115	44
