Mass spectrum: 1-PHENYLETHANOL; EI-MS
Formula: C8H10O
Exact mass: 122.07316
Instrument type: EI-MS
m/z	relative intensity
43	36
78	169
79	39
104	40
105	241
106	28
107	522
108	11
120	31
121	18
122	999
123	111
