Mass spectrum: ALLYL GLYCIDYL ETHER; EI-MS
Name: 2,3-EPOXYPROPYL ALLYL ETHER
Formula: C6H10O2
Exact mass: 114.06808
Instrument type: EI-MS
m/z	relative intensity
14	21
15	113
26	64
27	336
28	41
29	541
30	43
31	371
38	32
39	369
40	49
41	999
42	68
43	137
44	16
45	49
55	80
56	26
57	826
58	248
59	11
69	10
71	46
83	29
84	24
