Mass spectrum: N,N-DIETHYLANILINE; EI-MS
Formula: C10H15N
Exact mass: 149.12045
Instrument type: EI-MS
m/z	relative intensity
39	47
41	18
42	22
51	69
52	14
63	11
64	13
65	29
77	213
78	33
79	49
91	47
92	14
103	12
104	62
105	23
106	338
117	11
118	25
119	17
120	65
134	999
135	91
148	26
149	329
150	37
