Mass spectrum: ISOXAZOLE; EI-MS
Formula: C3H3NO
Exact mass: 69.02146
Instrument type: EI-MS
m/z	relative intensity
25	72
26	127
27	118
29	43
30	69
36	18
37	90
38	22
39	251
40	950
41	605
42	17
43	42
50	21
51	42
52	3
53	15
55	21
56	15
57	2
67	18
68	713
69	999
70	5
71	24
