Mass spectrum: 3-FORMYL-1-METHYLINDOLE; EI-MS
Formula: C10H9NO
Exact mass: 159.06841
Instrument type: EI-MS
m/z	relative intensity
39	40
50	10
51	45
62	2
63	80
66	27
75	24
76	1
77	190
88	19
89	100
101	2
102	45
103	122
115	24
116	2
128	19
129	12
130	145
131	1
157	20
158	999
159	880
160	76
