Mass spectrum: 2-METHYL-6-METHYLENEOCT-7-EN-3-ONE; EI-MS
Formula: C10H16O
Exact mass: 152.12012
Instrument type: EI-MS
m/z	relative intensity
42	268
43	844
44	24
51	30
52	25
53	198
55	50
65	45
66	26
67	528
68	52
71	999
72	54
77	33
79	191
80	30
81	568
82	49
91	20
95	20
109	108
119	25
152	56
