Mass spectrum: PARA XYLENE; EI-MS
Formula: C8H10
Exact mass: 106.07825
Instrument type: EI-MS
m/z	relative intensity
27	39
38	10
39	73
41	13
50	31
51	98
52	39
53	23
62	12
63	35
65	58
77	119
78	50
79	88
89	15
91	999
92	74
102	11
103	65
104	22
105	251
106	504
107	43
