Mass spectrum: N-2,4-DINITROPHENYL-O-TRIMETHYLSILYL-ETHANOLAMINE; EI-MS
Name: N-(2,4-DINITROPHENYL)-2-TRIMETHYLSILYLOXYETHYLAMINE
Formula: C11H17N3O5Si
Exact mass: 299.09375
Instrument type: EI-MS
m/z	relative intensity
59	55
61	45
73	999
74	90
75	440
103	500
104	90
105	75
117	135
133	60
150	60
166	90
179	165
180	60
196	180
197	30
241	30
269	45
284	60
299	120
