Mass spectrum: CYCLOHEXYL BUTYRATE; EI-MS
Formula: C10H18O2
Exact mass: 170.13068
Instrument type: EI-MS
m/z	relative intensity
15	15
27	217
28	43
29	104
39	138
40	23
41	398
42	61
43	758
44	24
53	39
54	182
55	336
56	22
57	36
58	26
60	44
67	540
68	31
70	26
71	964
72	44
73	27
79	13
81	97
82	999
83	356
84	23
86	54
87	15
88	134
89	717
90	33
99	61
127	50
