Mass spectrum: 2-QUINOLINECARBOXYLIC ACID METHYL ESTER; EI-MS
Formula: C11H9NO2
Exact mass: 187.06333
Instrument type: EI-MS
m/z	relative intensity
50	43
51	79
52	12
63	2
64	46
75	87
76	35
77	8
78	15
100	20
101	151
102	8
103	10
127	28
128	372
129	999
130	102
156	20
157	200
158	2
187	87
188	10
