Mass spectrum: TERT-BUTYL ACETATE; EI-MS
Formula: C6H12O2
Exact mass: 116.08373
Instrument type: EI-MS
m/z	relative intensity
14	11
15	92
27	107
28	23
29	179
31	35
39	83
40	15
41	330
42	21
43	999
44	24
55	30
56	388
57	528
58	23
59	360
60	13
61	26
101	170
