Mass spectrum: 2-BUTYLAMINE; EI-MS
Name: SEC-BUTYLAMINE
Formula: C4H11N
Exact mass: 73.08915
Instrument type: EI-MS
m/z	relative intensity
15	38
18	148
26	10
27	7
28	76
29	32
30	84
39	3
40	10
41	101
42	81
43	4
44	999
45	27
55	25
56	3
57	17
58	125
72	19
73	14
