Mass spectrum: 1,1,2-TRICHLOROETHANE; EI-MS
Formula: C2H3Cl3
Exact mass: 131.93003
Instrument type: EI-MS
m/z	relative intensity
27	17
49	40
51	12
61	279
62	31
63	94
83	906
84	13
85	589
87	95
95	20
96	199
97	999
98	155
99	650
100	36
101	106
132	97
133	4
134	96
135	3
136	32
138	3
