Mass spectrum: FLUOROMESITYL(2,4,6-TRI-TERT-BUTYLPHENYL)SILANOL; EI-MS
Formula: C27H41FOSi
Exact mass: 428.29107
Instrument type: EI-MS
m/z	relative intensity
43	15
51	15
53	19
55	34
56	18
57	999
58	49
59	12
63	13
65	21
73	11
77	45
78	16
79	45
91	64
92	11
93	13
94	21
103	28
104	15
105	164
106	21
108	32
115	26
116	17
117	37
118	34
119	466
120	159
121	21
128	20
129	24
130	14
131	23
133	10
139	11
141	16
142	12
143	17
145	14
155	12
157	11
159	16
163	11
165	18
173	20
175	227
176	37
177	12
178	11
179	11
181	22
182	131
183	486
184	81
185	27
187	16
189	12
190	172
191	28
199	15
203	22
215	25
219	12
221	10
229	74
231	959
232	189
233	27
237	58
238	16
244	29
245	14
246	243
247	55
259	10
275	27
293	107
294	27
295	10
315	54
316	16
355	10
357	116
308	13
358	36
371	33
372	62
373	21
428	15
