Mass spectrum: HEXAMETHYLDISILANE; EI-MS
Formula: C6H18Si2
Exact mass: 146.0947
Instrument type: EI-MS
m/z	relative intensity
43	75
44	46
45	110
58	24
59	39
69	10
72	25
73	999
74	96
75	39
115	17
131	225
132	36
133	18
146	134
147	24
148	11
