Mass spectrum: HEXYL PHENYLACETATE; EI-MS
Formula: C14H20O2
Exact mass: 220.14633
Instrument type: EI-MS
m/z	relative intensity
27	90
29	106
39	90
41	216
42	54
43	999
44	28
51	23
53	10
55	79
56	50
57	111
63	26
65	139
69	18
84	27
85	59
89	30
90	26
91	850
92	243
93	15
119	18
129	80
136	233
137	100
220	14
