Mass spectrum: BENZO(F)QUINOLINE; EI-MS
Formula: C13H9N
Exact mass: 179.0735
Instrument type: EI-MS
m/z	relative intensity
31	10
39	14
50	23
51	22
62	22
63	61
74	34
75	63
76	126
77	15
86	11
87	16
89	64
98	15
99	17
100	12
101	10
102	11
125	17
126	43
127	13
150	85
151	171
152	133
153	40
176	14
177	60
178	235
179	999
180	182
181	14
