Mass spectrum: 3-ETHOXY-6-(1-METHYLTHIOMETHOXY-5-METHYL-4-HEXENYL)-2-CYCLOHEXEN-1-ONE; EI-MS
Formula: C17H28O3S
Exact mass: 312.17592
Instrument type: EI-MS
m/z	relative intensity
43	131
48	108
58	102
81	5
84	61
87	78
93	156
94	10
96	127
97	116
99	36
106	12
107	98
109	139
110	54
112	8
113	62
116	40
121	66
123	4
124	105
125	50
127	64
128	4
138	167
139	454
140	479
141	9
150	54
151	432
152	59
153	12
154	65
163	40
164	57
165	7
166	450
167	999
168	65
169	14
170	54
179	167
180	210
181	7
182	319
183	160
187	46
191	6
193	128
194	41
195	39
205	9
206	81
207	263
215	47
219	7
221	34
229	69
232	283
233	81
234	293
235	124
236	121
237	7
247	227
248	81
249	51
250	46
251	170
252	92
264	299
265	12
266	37
312	61
313	30
