Mass spectrum: PARA-METHOXYPHENYLDIMETHYLMETHOXYSILANE; EI-MS
Formula: C10H16O2Si
Exact mass: 196.09196
Instrument type: EI-MS
m/z	relative intensity
43	37
45	17
59	132
75	21
76	18
77	18
89	38
90	14
91	44
93	22
105	15
108	16
121	81
122	14
135	32
151	350
152	52
153	17
165	30
181	999
182	157
183	52
196	209
197	35
