Mass spectrum: N-ACETYL-ASPARTIC ACID DIETHYLESTER; EI-MS
Formula: C10H17NO5
Exact mass: 231.11067
Instrument type: EI-MS
m/z	relative intensity
15	42
27	67
28	88
29	16
30	22
32	16
41	14
42	4
43	374
44	59
55	11
60	2
70	116
74	56
85	11
88	3
99	23
102	35
116	999
117	5
158	581
159	35
186	56
188	1
231	13
