Mass spectrum: DIFLUOROISOPROPYL(2,4,6-TRI-TERT-BUTYLPHENYL)SILANE; EI-MS
Name: 1,3,5-TRI-TERT-BUTYL-2-(DEFLUOROISOPROPYLSILYL)BENZENE
Formula: C21H36F2Si
Exact mass: 354.25543
Instrument type: EI-MS
m/z	relative intensity
43	26
55	18
57	619
58	29
81	40
91	14
117	11
129	10
131	14
189	12
231	15
255	11
283	999
284	235
285	61
298	86
299	21
339	16
354	17
