Mass spectrum: 4-METHYLAMINO-2(5H)-FURANONE; EI-MS
Formula: C5H7NO2
Exact mass: 113.04768
Instrument type: EI-MS
m/z	relative intensity
40	2
41	7
42	26
43	5
44	3
45	4
54	36
55	276
56	114
57	16
58	2
60	6
61	4
67	12
68	21
69	6
70	16
71	8
72	2
73	7
74	4
81	3
82	30
83	48
84	134
85	95
86	6
87	4
95	56
96	7
97	6
98	9
99	5
109	3
110	3
111	5
112	104
113	999
114	74
115	10
116	4
