Mass spectrum: AMYL PARA TOLUATE; EI-MS
Name: PARA TOLUIC ACID AMYL ESTER
Formula: C13H18O2
Exact mass: 206.13068
Instrument type: EI-MS
m/z	relative intensity
27	43
29	50
39	58
41	77
42	68
43	35
55	45
63	10
65	112
70	44
89	27
90	19
91	439
92	89
93	75
119	999
120	87
136	685
137	583
138	45
206	7
