Mass spectrum: 3BETA-ACETOXY-5ALPHA-LANOST-8-EN-7ALPHA-YLNITRITE ESTER; EI-MS
Formula: C32H53NO4
Exact mass: 515.39746
Instrument type: EI-MS
m/z	relative intensity
144	100
146	160
148	150
150	10
158	100
160	100
162	150
164	2
172	100
174	140
176	150
184	1
186	100
188	150
190	280
200	1
202	150
204	100
208	200
240	1
254	100
289	100
304	300
305	1
313	80
349	70
357	50
393	3
394	120
395	50
397	70
407	1
408	70
409	350
410	130
425	2
443	50
453	140
467	100
468	6
469	999
470	700
471	150
484	2
485	200
486	100
498	50
515	10
