Mass spectrum: PARA-NITROPHENOL; EI-MS
Formula: C6H5NO3
Exact mass: 139.02694
Instrument type: EI-MS
m/z	relative intensity
26	53
27	105
28	16
29	3
30	117
37	67
38	168
39	81
40	31
42	15
43	15
49	2
50	93
51	80
52	52
53	14
54	21
55	35
61	64
62	12
63	246
64	109
65	999
66	6
67	12
73	13
74	48
75	3
81	276
82	17
92	23
93	23
94	17
109	484
110	35
113	5
129	982
130	92
131	11
