Mass spectrum: 2-DODECANONE; EI-MS
Formula: C12H24O
Exact mass: 184.18272
Instrument type: EI-MS
m/z	relative intensity
15	23
27	101
29	141
39	68
41	256
42	60
43	866
44	20
53	15
54	15
55	118
56	41
57	115
58	999
59	319
67	16
68	12
69	34
70	24
71	279
72	15
81	13
82	33
83	23
84	14
85	63
95	16
96	18
97	16
124	22
126	33
184	26
