Mass spectrum: ETHYLENE GLYCOL MONO-TERT-BUTYL ETHER; EI-MS
Name: 2-TERT-BUTOXYETHANOL
Formula: C6H14O2
Exact mass: 118.09938
Instrument type: EI-MS
m/z	relative intensity
18	13
27	18
29	239
31	79
41	307
42	14
43	26
45	188
55	18
56	118
57	999
58	48
59	650
60	19
87	29
103	123
118	2
