Mass spectrum: 1-METHYLPROPYLAMINE; EI-MS
Name: SEC-BUTYLAMINE
Formula: C4H11N
Exact mass: 73.08915
Instrument type: EI-MS
m/z	relative intensity
15	24
27	52
28	52
29	40
30	47
39	22
41	101
42	69
43	38
44	999
45	84
55	30
56	24
57	22
58	92
59	11
72	18
