Mass spectrum: ETHYL 2-FURYL KETONE; EI-MS
Name: 2-PROPIONYLFURAN
Formula: C7H8O2
Exact mass: 124.05243
Instrument type: EI-MS
m/z	relative intensity
26	22
27	105
29	76
37	32
38	80
39	258
41	14
51	19
53	17
55	13
57	13
67	29
68	12
95	999
96	56
124	228
125	15
