Mass spectrum: N,N-DIPROPYL-2,4-DINITROBENZENAMINE; EI-MS
Formula: C12H17N3O4
Exact mass: 267.12191
Instrument type: EI-MS
m/z	relative intensity
43	72
45	7
50	13
51	25
52	23
53	5
63	19
64	7
65	33
66	37
75	27
76	48
77	56
78	56
79	11
80	37
81	23
89	35
90	33
91	33
92	41
93	9
98	29
103	62
104	99
105	41
106	43
107	37
108	5
113	31
116	37
117	29
118	45
119	19
120	56
121	39
122	70
130	39
131	48
132	39
133	7
134	62
135	19
136	35
138	54
140	33
144	35
145	39
146	37
147	33
149	27
150	80
151	33
159	29
160	37
161	31
164	35
166	86
167	31
168	5
174	39
175	35
176	35
177	33
178	39
180	60
181	35
184	31
191	35
192	68
193	33
194	50
195	39
196	999
197	91
198	35
203	33
204	9
206	31
208	60
209	33
210	13
212	5
218	33
222	142
223	35
238	968
239	115
267	52
