Mass spectrum: 1,2-BENZENEDICARBOXYLIC ACID DIBENZYL ESTER; EI-MS
Name: DIBENZYL PHTHALATE
Formula: C22H18O4
Exact mass: 346.12051
Instrument type: EI-MS
m/z	relative intensity
17	21
18	49
28	26
32	5
79	30
91	363
92	183
93	16
104	22
105	23
107	999
108	81
121	7
132	25
133	8
149	622
150	59
238	4
255	6
