Mass spectrum: 1,1-DIMETHYL-2-PROPYLHYDRAZINE; EI-MS
Formula: C5H14N2
Exact mass: 102.1157
Instrument type: EI-MS
m/z	relative intensity
26	7
27	56
28	91
29	3
30	113
31	11
38	42
39	1
40	7
41	49
42	147
43	13
44	158
45	169
46	60
56	1
57	18
58	25
59	999
60	4
71	11
72	7
73	253
74	1
87	33
102	381
103	33
