Mass spectrum: BENZYL METHYL SULFIDE; EI-MS
Formula: C8H10S
Exact mass: 138.05032
Instrument type: EI-MS
m/z	relative intensity
15	14
27	15
38	18
39	137
41	18
45	136
46	22
47	38
50	36
51	70
52	16
61	14
62	23
63	76
64	18
65	167
69	10
77	32
78	11
89	46
90	16
91	999
92	78
121	23
123	12
138	252
139	19
