Mass spectrum: DIBUTOXYETHYL PHTHALATE; EI-MS
Formula: C20H30O6
Exact mass: 366.20424
Instrument type: EI-MS
m/z	relative intensity
44	81
45	820
50	29
54	105
55	887
56	999
57	40
58	3
62	47
65	35
66	35
71	3
72	30
73	29
76	76
77	3
83	32
85	429
86	26
88	3
93	26
100	296
101	483
102	4
104	118
105	58
117	83
119	4
121	26
132	87
133	110
148	5
149	579
150	60
163	26
176	19
177	45
193	273
194	48
249	12
250	48
293	26
294	100
295	2
367	14
