Mass spectrum: 4-METHYLCYCLOHEXYL ACETATE; EI-MS
Formula: C9H16O2
Exact mass: 156.11503
Instrument type: EI-MS
m/z	relative intensity
43	260
54	106
55	110
57	2
56	13
58	39
61	56
66	1
67	84
68	131
69	21
70	3
71	17
81	840
82	60
85	1
95	57
96	999
97	111
99	1
113	21
114	19
