Mass spectrum: 3,7-DIMETHYL-10-(N-METHYLPIPERAZINYLCARBAMOYL)-(E)-7-DECEN-2-ONE; EI-MS
Formula: C18H32N2O2
Exact mass: 308.24638
Instrument type: EI-MS
m/z	relative intensity
29	49
30	25
41	87
42	14
43	437
44	391
53	28
55	14
56	359
57	598
58	859
59	4
67	66
68	27
69	78
70	999
71	264
72	65
79	51
81	9
82	57
83	498
84	68
85	11
86	19
93	40
95	82
96	2
97	123
98	769
99	766
100	24
101	460
102	32
107	16
108	2
109	33
110	32
111	35
112	3
113	32
124	51
125	17
127	14
128	35
137	16
138	16
140	1
141	35
142	155
143	13
149	2
152	95
153	33
155	33
166	36
167	65
180	109
181	16
194	7
195	19
208	21
209	250
210	5
222	44
223	43
224	47
237	25
238	35
251	13
252	63
265	5
293	17
307	19
308	835
309	19
400	21
407	19
