Mass spectrum: ORTHO TOLUALDEHYDE; EI-MS
Formula: C8H8O
Exact mass: 120.05751
Instrument type: EI-MS
m/z	relative intensity
27	25
29	13
37	13
38	29
39	171
40	14
41	44
43	25
44	29
50	48
51	81
61	16
62	38
63	104
64	22
65	263
66	19
77	19
89	65
90	36
91	999
92	98
119	657
120	703
121	61
