Mass spectrum: 2-(3,4,5-TRIMETHOXYPHENYL)-ETHYLAMINE; EI-MS
Formula: C11H17NO3
Exact mass: 211.12084
Instrument type: EI-MS
m/z	relative intensity
30	889
31	38
106	49
107	6
108	27
109	27
136	66
137	3
138	27
139	66
147	22
148	11
149	55
151	183
152	38
153	3
167	544
168	111
169	33
181	50
182	999
183	138
211	211
212	6
213	38
