Mass spectrum: 1,4-DIBROMOBUTANE; EI-MS
Formula: C4H8Br2
Exact mass: 213.89928
Instrument type: EI-MS
m/z	relative intensity
26	40
27	182
28	54
29	180
39	107
41	100
50	10
51	12
53	50
54	15
55	999
56	44
79	17
80	31
81	17
82	32
95	36
106	45
107	136
108	46
109	132
134	102
135	844
136	137
137	808
138	33
214	9
216	17
218	8
