Mass spectrum: ETHYL PIPERATE; EI-MS
Name: ETHYL 5-(3,4-METHYLENEDIOXYPHENYL)-2,4-PENTADIENOATE
Formula: C14H14O4
Exact mass: 246.08921
Instrument type: EI-MS
m/z	relative intensity
29	31
103	17
115	289
116	6
117	33
127	12
131	22
143	28
144	50
145	17
159	19
171	7
172	281
173	999
174	134
175	2
187	23
199	30
200	13
201	13
202	18
217	64
218	17
246	71
247	115
248	14
