Mass spectrum: ISOBUTYL ISOPENTANOATE; EI-MS
Name: ISOBUTYL ISOVALERATE
Formula: C9H18O2
Exact mass: 158.13068
Instrument type: EI-MS
m/z	relative intensity
27	114
29	154
31	13
39	131
41	397
42	88
43	158
45	15
53	10
55	41
56	461
57	808
58	30
59	23
60	146
61	29
69	16
73	23
85	999
86	50
87	96
101	12
102	27
103	224
104	12
115	33
116	32
128	12
