Mass spectrum: O-METHYLBENZYL ACETATE; EI-MS
Name: 1-ACETOXYMETHYL-2-METHYLBENZENE
Formula: C10H12O2
Exact mass: 164.08373
Instrument type: EI-MS
m/z	relative intensity
15	30
27	20
39	57
41	11
43	206
50	15
51	48
52	14
53	13
63	31
65	60
77	121
78	114
79	65
89	18
91	86
93	38
102	11
103	112
104	999
105	289
106	25
107	71
119	15
121	11
122	41
