Mass spectrum: MEVINOLINE; EI-MS
Formula: C24H36O5
Exact mass: 404.25627
Instrument type: EI-MS
m/z	relative intensity
17	32
18	155
27	16
28	125
29	52
32	28
39	15
41	83
42	16
43	72
44	28
45	24
55	67
56	18
57	315
58	27
67	34
68	11
69	29
71	34
73	29
74	32
77	12
79	35
80	25
81	75
82	12
83	19
84	21
85	59
87	15
89	41
91	58
92	15
93	41
95	19
97	28
103	18
105	171
106	31
107	28
108	15
109	14
111	12
115	30
116	11
117	65
118	60
119	70
120	15
121	13
126	27
127	16
128	44
129	85
130	39
131	132
132	54
133	35
141	41
142	77
143	255
144	107
145	126
146	32
147	17
155	92
156	121
157	781
158	271
159	999
160	160
161	46
165	10
167	14
169	191
170	115
171	125
172	471
173	181
174	64
175	19
179	11
181	21
182	16
183	156
184	36
185	50
186	15
187	12
195	22
196	23
197	165
198	708
199	216
200	122
201	35
202	15
209	36
210	212
211	38
212	12
213	16
215	10
223	24
224	208
225	60
226	11
227	11
233	36
238	29
239	10
242	18
243	12
251	26
256	12
269	49
284	119
285	33
286	16
287	27
302	108
303	28
304	22
404	28
