Mass spectrum: ETHOPROPAZINE; EI-MS
Name: 10-(2-DIETHYLAMINOPROPYL)PHENOTHIAZINE
Formula: C19H24N2S
Exact mass: 312.16602
Instrument type: EI-MS
m/z	relative intensity
56	51
70	28
71	12
72	58
77	11
84	37
98	13
99	37
100	999
101	72
127	11
139	12
154	26
166	29
167	48
171	10
180	32
197	11
198	84
199	125
200	25
212	15
213	44
312	16
