Mass spectrum: (1R,2S,5R)-5-METHYL-2-(1-METHYL-1-(4-METHOXYPHENYL)ETHYL)-CYCLOHEXANE-1-YL ACRYLATE; EI-MS
Formula: C20H28O3
Exact mass: 316.20384
Instrument type: EI-MS
m/z	relative intensity
39	128
41	635
53	65
65	103
67	94
69	83
77	237
78	74
79	158
81	117
90	51
91	411
92	76
93	60
94	142
95	119
103	132
105	109
106	65
108	62
109	514
115	107
117	79
119	132
121	999
122	89
128	54
129	53
131	51
133	159
134	139
135	325
147	53
148	355
151	108
159	56
161	157
173	55
316	398
317	80
