Mass spectrum: 3-METHYL-2-PENTANONE; EI-MS
Formula: C6H12O
Exact mass: 100.08882
Instrument type: EI-MS
m/z	relative intensity
15	47
26	16
27	118
28	39
29	225
38	10
39	98
41	300
42	36
43	999
44	19
45	10
51	11
53	12
55	32
56	112
57	338
58	15
71	12
72	241
85	46
100	83
