Mass spectrum: TRIMETHYL ORTHOFORMATE; EI-MS
Name: ORTHOFORMIC ACID TRIMETHYL ESTER
Formula: C4H10O3
Exact mass: 106.06299
Instrument type: EI-MS
m/z	relative intensity
15	15
31	106
45	10
47	191
75	999
76	32
105	24
106	1
