Mass spectrum: PIPERONAL; EI-MS
Name: 1,3-BENZODIOXOLE-5-CARBALDEHYDE
Formula: C8H6O3
Exact mass: 150.03169
Instrument type: EI-MS
m/z	relative intensity
29	36
39	34
44	37
63	104
65	203
91	89
99	48
119	72
121	344
149	819
150	999
151	88
