Mass spectrum: TRANS-2-DECENYL ACETATE; EI-MS
Name: ACETIC ACID TRANS-2-DECENYL ESTER
Formula: C12H22O2
Exact mass: 198.16198
Instrument type: EI-MS
m/z	relative intensity
15	23
27	93
29	112
39	86
40	12
41	240
42	49
43	999
44	24
53	56
54	263
55	223
56	55
57	97
58	19
61	15
66	17
67	167
68	135
69	82
70	27
71	61
72	23
73	12
79	15
81	132
82	131
83	69
84	16
85	15
86	14
95	91
96	133
97	26
99	22
100	40
109	50
110	98
113	21
114	37
127	14
138	50
155	12
156	51
