Mass spectrum: PENTYL LACTATE; EI-MS
Name: AMYL LACTATE
Formula: C8H16O3
Exact mass: 160.10994
Instrument type: EI-MS
m/z	relative intensity
15	15
19	15
27	129
29	11
31	12
39	52
41	137
42	7
43	439
44	26
45	999
46	2
55	80
56	17
63	10
69	2
70	138
71	107
75	24
85	2
91	16
99	15
