Mass spectrum: ALPHA-METHYL-3-PHENOXYBENZYLALCOHOL; EI-MS
Formula: C14H14O2
Exact mass: 214.09938
Instrument type: EI-MS
m/z	relative intensity
37	10
38	51
39	310
40	55
41	42
43	980
44	26
45	16
50	160
51	550
52	68
53	3
55	41
62	27
63	110
64	6
65	710
66	120
67	11
74	4
75	55
76	90
77	660
78	15
89	27
90	10
90.5	25
91	10
92	25
93	710
94	230
95	4
98	27
98.5	13
99	90
99.5	15
102	24
103	43
104	23
105	4
106	15
107	12
115	105
116	2
119	11
120	12
121	68
122	1
127	15
128	43
129	13
139	3
140	10
141	110
142	30
143	2
149	13
151	19
152	81
153	35
154	51
157	13
159	10
165	1
167	14
168	23
169	52
170	5
171	880
172	120
173	10
181	6
182	10
185	25
186	36
187	2
195	27
196	21
197	60
198	2
199	540
200	83
201	9
202	1
213	24
214	999
215	160
216	16
