Mass spectrum: 1,1,5-TRIMETHYLINDAN; EI-MS
Formula: C12H16
Exact mass: 160.1252
Instrument type: EI-MS
m/z	relative intensity
15	78
27	61
28	20
39	73
41	29
51	52
53	30
63	38
65	37
77	50
78	20
91	42
103	18
105	61
115	95
128	103
129	88
143	22
145	999
146	122
147	10
160	145
161	19
