Mass spectrum: 3-ETHOXY-1-PHENYL-1,5-HEXADIENE; EI-MS
Formula: C14H18O
Exact mass: 202.13577
Instrument type: EI-MS
m/z	relative intensity
42	64
51	56
55	328
63	27
65	33
76	20
77	152
78	56
79	57
89	23
91	154
102	33
103	111
104	41
105	111
115	368
116	47
117	21
127	21
128	56
129	50
131	77
132	20
133	663
134	68
141	25
156	20
161	999
162	126
