Mass spectrum: CROTONIC ACID BUTYL ESTER; EI-MS
Name: BUTYL CROTONATE
Formula: C8H14O2
Exact mass: 142.09938
Instrument type: EI-MS
m/z	relative intensity
27	46
28	15
29	69
39	144
40	26
41	346
42	26
43	22
45	10
55	52
56	175
57	31
68	18
69	999
70	46
87	433
88	18
99	11
127	14
142	9
