Mass spectrum: 1-METHYLINDOLE; EI-MS
Formula: C9H9N
Exact mass: 131.0735
Instrument type: EI-MS
m/z	relative intensity
15	10
27	10
28	20
38	15
39	43
50	32
51	56
63	56
65.5	93
77	114
89	137
90	97
103	99
104	20
116	72
130	746
131	999
132	93
