Mass spectrum: (29H,31H-PHTHALOCYANINATO(2-)-N(29),N(30),N(31),N(32))COPPER; EI-MS
Name: PHTHALOCYANINE BLUE
Formula: C32H16CuN8
Exact mass: 575.07939
Instrument type: EI-MS
m/z	relative intensity
128	10
191	170
192	30
193	80
194	20
287.5	40
288.5	10
575	999
577	380
578	600
579	330
580	470
581	160
