Mass spectrum: TERTBUTYL BENZOATE; EI-MS
Name: BENZOIC ACID TERTBUTYL ESTER
Formula: C11H14O2
Exact mass: 178.09938
Instrument type: EI-MS
m/z	relative intensity
27	39
29	99
39	71
41	193
43	30
50	54
51	171
55	16
56	282
57	664
58	26
76	24
77	401
78	54
79	59
105	999
106	73
122	70
123	591
124	42
