Mass spectrum: 13-METHYLTETRADECANOIC ACID METHYL ESTER; EI-MS
Formula: C16H32O2
Exact mass: 256.24023
Instrument type: EI-MS
m/z	relative intensity
43	13
44	13
55	200
56	4
57	124
59	48
65	13
67	4
69	140
70	16
71	27
74	999
75	127
81	35
83	86
84	2
87	521
88	51
95	16
97	6
101	70
102	16
107	18
111	4
125	16
129	45
143	145
144	2
157	56
171	29
185	27
199	5
213	113
214	18
225	18
227	2
256	54
257	13
