Mass spectrum: 1-PENTANOL; EI-MS
Name: PENTYL ALCOHOL
Formula: C5H12O
Exact mass: 88.08882
Instrument type: EI-MS
m/z	relative intensity
15	15
19	15
26	13
27	171
28	59
29	442
30	16
31	439
39	98
40	20
41	517
42	999
43	220
44	71
45	40
53	16
54	15
55	638
56	137
57	199
58	23
60	13
69	48
70	396
71	26
