Mass spectrum: CEDROL; EI-MS
Formula: C15H26O
Exact mass: 222.19837
Instrument type: EI-MS
m/z	relative intensity
15	14
18	20
27	91
29	135
39	121
41	589
42	55
43	616
44	24
45	38
51	25
52	18
53	140
54	30
55	326
56	45
57	57
58	77
59	61
65	64
66	28
67	205
68	38
69	394
70	29
71	149
72	90
73	14
77	172
78	43
79	258
80	49
81	424
82	108
83	72
84	17
85	10
91	216
92	51
93	324
94	90
95	999
96	99
97	34
99	77
103	15
104	12
105	163
106	45
107	280
108	156
109	250
110	33
111	28
113	14
115	15
117	19
119	189
120	55
121	204
122	121
123	98
124	15
131	12
133	92
134	39
135	204
136	48
137	63
138	20
139	10
147	72
148	35
149	171
150	757
151	713
152	87
161	127
162	31
163	30
164	71
165	98
166	39
167	17
175	11
177	47
178	25
179	29
189	42
193	15
204	60
205	11
207	133
208	25
222	35
