Mass spectrum: TRIETHYLENE GLYCOL DI-3-ETHYLBUTYRATE; EI-MS
Formula: C18H34O6
Exact mass: 346.23554
Instrument type: EI-MS
m/z	relative intensity
43	953
44	63
45	235
53	3
54	170
56	37
57	37
69	5
70	95
71	999
72	53
73	9
86	48
87	20
88	36
89	3
98	78
99	533
100	38
101	2
113	88
114	35
115	30
127	6
142	198
143	966
144	90
173	2
186	16
