Mass spectrum: BENZYL LACTATE; EI-MS
Formula: C10H12O3
Exact mass: 180.07864
Instrument type: EI-MS
m/z	relative intensity
27	22
29	20
39	35
41	13
43	23
45	632
46	17
50	16
51	38
52	13
56	13
63	25
65	103
77	62
78	12
79	30
89	28
90	28
91	999
92	159
105	11
107	18
108	17
180	35
