Mass spectrum: 2,4-DIHYDROXYBENZOIC ACID; EI-MS
Name: BETA-RESORCYLIC ACID
Formula: C7H6O4
Exact mass: 154.02661
Instrument type: EI-MS
m/z	relative intensity
17	20
18	209
27	82
28	2
39	168
41	26
42	10
43	4
44	230
51	97
52	163
53	11
54	31
55	71
57	46
63	4
64	26
66	15
68	20
69	18
70	26
71	26
79	41
80	26
81	158
82	97
95	219
97	1
107	61
108	653
109	61
110	77
111	41
136	999
137	199
138	1
154	908
155	71
