Mass spectrum: 2,2,4,4-TETRAMETHYL-1,2,3,4-TETRAHYDRO-GAMMA-CARBOLINE; EI-MS
Formula: C15H20N2
Exact mass: 228.16265
Instrument type: EI-MS
m/z	relative intensity
41	99
42	145
43	98
55	6
115	10
156	98
171	310
186	5
213	999
214	155
228	51
