Mass spectrum: DIBUTYL PHTHALATE; EI-MS
Formula: C16H22O4
Exact mass: 278.15181
Instrument type: EI-MS
m/z	relative intensity
27	61
29	81
31	35
39	42
41	146
42	17
43	38
50	23
55	22
56	97
57	68
65	39
76	68
77	14
93	20
104	72
105	24
121	16
122	13
149	999
150	96
205	43
223	50
