Mass spectrum: 3-BENZYL-2-HEPTANONE; EI-MS
Formula: C14H20O
Exact mass: 204.15142
Instrument type: EI-MS
m/z	relative intensity
41	67
43	347
51	19
55	37
57	16
65	72
71	23
77	32
78	26
79	16
85	23
91	961
92	96
103	20
104	51
105	131
115	34
117	68
119	28
129	67
133	35
143	16
147	999
148	438
149	47
161	41
189	22
204	66
