Mass spectrum: PALMITOLEIC ACID TRIMETHYLSILYL ESTER; EI-MS
Name: CIS-9-HEXADECENOIC ACID TRIMETHYLSILYL ESTER
Formula: C19H38O2Si
Exact mass: 326.26411
Instrument type: EI-MS
m/z	relative intensity
43	138
55	508
57	125
67	23
69	221
73	746
74	104
75	999
79	112
81	170
82	144
83	10
84	200
95	172
96	293
97	16
98	168
110	142
117	572
129	43
131	106
132	153
145	242
152	11
194	104
311	255
312	72
