Mass spectrum: 4-PHENYLBUTYRIC ACID METHYL ESTER; EI-MS
Name: 4-BENZENEBUTANOIC ACID METHYL ESTER
Formula: C11H14O2
Exact mass: 178.09938
Instrument type: EI-MS
m/z	relative intensity
43	346
50	23
51	72
52	2
57	19
63	39
65	191
74	69
75	19
77	59
78	82
79	4
89	33
91	683
92	62
103	6
104	999
105	419
106	29
115	6
117	62
118	33
129	46
146	39
147	343
148	29
178	333
179	42
