Mass spectrum: 3-ISOBUTYL-2,5-PIPERAZINEDIONE; EI-MS
Name: CYCLOGLYCYLLEUCINE
Formula: C8H14N2O2
Exact mass: 170.10553
Instrument type: EI-MS
m/z	relative intensity
30	639
31	12
41	12
42	1
43	49
44	36
55	10
56	17
57	97
58	16
60	10
68	1
69	10
70	38
71	10
72	1
84	523
85	198
86	70
96	1
98	21
99	345
100	31
112	3
113	121
114	999
115	222
116	3
127	358
128	44
142	10
143	2
155	23
169	10
170	9
171	13
