Mass spectrum: ISOPROPYL ISOBUTYRATE; EI-MS
Formula: C7H14O2
Exact mass: 130.09938
Instrument type: EI-MS
m/z	relative intensity
27	21
41	62
42	85
43	999
44	32
45	41
59	55
71	383
72	18
73	18
88	28
89	179
115	41
130	1
