Mass spectrum: 7-ACETOXY-6-METHYLCOUMARIN; EI-MS
Formula: C12H10O4
Exact mass: 218.05791
Instrument type: EI-MS
m/z	relative intensity
18	10
27	16
28	36
39	52
41	15
43	385
50	10
51	83
52	21
53	26
63	26
64	10
65	83
76	21
77	42
78	10
79	10
91	104
119	47
120	16
147	99
148	474
149	32
175	36
176	999
177	104
218	141
219	21
