Mass spectrum: 1-ISOBUTYL-3-METHYL-2-PYRAZOLINE; EI-MS
Formula: C8H16N2
Exact mass: 140.13135
Instrument type: EI-MS
m/z	relative intensity
26	4
27	32
28	60
29	3
30	3
39	22
41	43
42	12
43	13
53	5
54	11
55	1
56	31
57	6
58	3
68	2
69	68
70	5
82	3
83	3
84	7
95	7
96	8
97	999
98	47
99	2
125	6
139	0
140	77
141	8
