Mass spectrum: ORTHO-ETHYL ANILINE; EI-MS
Formula: C8H11N
Exact mass: 121.08915
Instrument type: EI-MS
m/z	relative intensity
27	14
28	27
30	16
39	43
41	10
51	30
52	19
53	37
58.5	10
63	14
65	32
66	12
77	137
78	37
79	116
80	13
89	10
91	35
93	17
103	30
104	14
106	999
107	81
118	26
120	34
121	402
122	32
