Mass spectrum: CYCLOHEPTANE; EI-MS
Formula: C7H14
Exact mass: 98.10955
Instrument type: EI-MS
m/z	relative intensity
15	16
27	213
28	86
29	253
39	258
40	49
41	739
42	701
43	134
53	61
54	109
55	901
56	999
57	180
67	67
68	202
69	554
70	801
71	47
82	33
83	387
84	23
96	22
97	117
98	318
99	21
