Mass spectrum: 2-PENTYLCYCLOPENTANONE; EI-MS
Formula: C10H18O
Exact mass: 154.13577
Instrument type: EI-MS
m/z	relative intensity
26	11
27	167
28	18
29	171
39	151
40	13
41	351
42	78
43	70
53	36
54	46
55	229
56	116
57	29
67	29
68	16
69	63
70	37
79	12
81	14
82	11
83	164
84	999
85	47
97	142
98	15
111	10
112	11
154	40
