Mass spectrum: ORTHO-TOLYL ACETATE; EI-MS
Formula: C9H10O2
Exact mass: 150.06808
Instrument type: EI-MS
m/z	relative intensity
43	113
77	23
79	37
80	34
90	54
91	17
107	161
108	999
109	78
122	10
150	196
151	21
