Mass spectrum: GAMMA-TERPINENE; EI-MS
Name: 1-ISOPROPYL-4-METHYL-1,4-CYCLOHEXADIENE
Formula: C10H16
Exact mass: 136.1252
Instrument type: EI-MS
m/z	relative intensity
15	12
27	120
29	40
39	140
40	15
41	155
43	195
50	15
51	73
52	23
53	70
55	27
63	27
65	74
66	12
67	23
77	307
78	61
79	191
80	76
81	15
89	13
91	354
92	207
93	999
94	87
103	19
104	11
105	95
106	19
107	71
115	12
117	10
119	25
121	283
122	24
136	331
137	29
