Mass spectrum: NAPHTHALENE; EI-MS
Formula: C10H8
Exact mass: 128.0626
Instrument type: EI-MS
m/z	relative intensity
50	27
51	101
62	13
63	61
64	108
65	11
74	27
75	33
76	25
77	39
78	24
87	10
101	25
102	55
126	59
127	121
128	999
129	109
