Mass spectrum: FLUORO(METHYL)(2,4,6-TRI-TERT-BUTYLPHENYL)SILANOL; EI-MS
Formula: C19H33FOSi
Exact mass: 324.22847
Instrument type: EI-MS
m/z	relative intensity
55	13
57	308
58	14
77	35
79	89
91	13
128	18
129	11
131	11
138	22
173	11
189	11
231	36
253	999
254	213
255	59
268	89
269	20
291	23
309	11
324	34
