Mass spectrum: BENZENE; EI-MS
Formula: C6H6
Exact mass: 78.04695
Instrument type: EI-MS
m/z	relative intensity
26	11
27	15
37	21
38	34
39	109
49	16
50	115
51	148
52	188
63	21
73	15
74	43
75	16
76	46
77	212
78	999
79	65
