Mass spectrum: 3-METHYL-1-PHENYL-3-PENTANOL; EI-MS
Formula: C12H18O
Exact mass: 178.13577
Instrument type: EI-MS
m/z	relative intensity
27	51
29	47
31	17
39	41
41	28
43	125
45	31
51	37
52	11
53	12
55	115
57	18
58	20
63	17
65	87
73	613
74	25
77	59
78	33
79	28
89	15
91	999
92	81
103	25
104	50
105	65
106	25
131	379
132	33
145	24
149	144
150	14
160	295
161	38
163	30
