Mass spectrum: VALERALDEHYDE; EI-MS
Formula: C5H10O
Exact mass: 86.07316
Instrument type: EI-MS
m/z	relative intensity
27	51
28	38
29	278
30	1
39	13
41	213
42	83
43	15
44	999
45	116
55	24
56	1
57	165
58	380
59	13
71	2
86	14
