Mass spectrum: ALLYL CROTONATE; EI-MS
Name: ALLYL TRANS-2-BUTENOATE
Formula: C7H10O2
Exact mass: 126.06808
Instrument type: EI-MS
m/z	relative intensity
15	12
26	17
27	52
29	29
32	24
37	13
38	31
39	343
41	423
42	22
55	10
57	19
68	12
69	999
70	52
81	48
111	30
