Mass spectrum: ETHYLTRIMETHYLSILANE; EI-MS
Formula: C5H14Si
Exact mass: 102.08648
Instrument type: EI-MS
m/z	relative intensity
27	11
28	35
29	35
31	3
42	18
43	111
44	25
45	10
53	13
55	18
57	16
58	4
59	514
60	36
61	16
72	1
73	999
74	79
75	34
87	21
88	22
89	8
102	52
