Mass spectrum: 2-(1-BENZYLOXY)PROPYLCYCLOPENTANONE; EI-MS
Formula: C15H20O2
Exact mass: 232.14633
Instrument type: EI-MS
m/z	relative intensity
55	37
57	41
67	47
68	34
79	67
81	37
82	25
83	44
84	47
91	761
92	80
95	63
96	33
97	691
98	91
105	36
106	44
107	123
108	169
109	31
111	92
124	116
125	173
126	999
127	92
150	66
151	31
174	24
203	74
204	10
232	4
