Mass spectrum: (29H,31H-PHTHALOCYANINATO(2-)-N(29),N(30),N(31),N(32))PLATINUM; EI-MS
Name: PHTHALOCYANINEPLATINUM(2)
Formula: C32H16N8Pt
Exact mass: 707.11457
Instrument type: EI-MS
m/z	relative intensity
128	10
322	20
323	30
324	30
353	50
353.5	90
354	90
354.5	70
706	720
707	999
708	900
709	830
710	260
711	260
712	110
