Mass spectrum: 4-(TERT-BUTOXYDIMETHYLSILYL)ACETOPHENONE; EI-MS
Formula: C14H22O2Si
Exact mass: 250.13891
Instrument type: EI-MS
m/z	relative intensity
42	33
44	58
46	23
75	66
77	19
81	64
91	26
103	15
110	94
115	16
119	59
121	22
134	61
135	24
136	41
177	428
178	81
179	999
180	161
181	33
235	675
236	129
237	38
250	12
