Mass spectrum: 4-OXO-6,7,8,9-TETRAHYDRO-4H-PYRIDO(1,2-A)PYRIMIDINE-3-CARBOXYLIC ACID ETHYL ESTER; EI-MS
Formula: C11H14N2O3
Exact mass: 222.10044
Instrument type: EI-MS
m/z	relative intensity
53	100
55	150
67	80
82	25
148	30
149	50
150	999
151	10
161	15
165	10
176	150
177	70
222	120
223	20
