Mass spectrum: 3,4,5-TRIMETHYL-1-PHENYLPYRAZOLE; EI-MS
Formula: C12H14N2
Exact mass: 186.1157
Instrument type: EI-MS
m/z	relative intensity
26	25
27	95
28	65
29	2
38	26
39	214
40	49
41	14
42	217
43	19
50	63
51	42
52	80
53	103
54	32
55	2
63	58
64	67
65	86
66	4
67	24
68	55
69	29
75	3
76	53
77	905
78	123
79	4
80	17
89	18
90	22
91	8
92	24
93	43
94	33
95	4
102	25
103	106
104	80
105	1
109	51
115	52
116	27
117	6
118	177
119	20
127	16
129	3
130	246
131	36
141	20
142	4
143	83
144	862
145	58
154	3
155	23
156	24
157	12
158	2
167	12
168	43
169	49
170	5
171	305
172	72
173	8
183	2
184	32
185	800
186	999
187	14
188	10
