Mass spectrum: 1,2,3,4-TETRAHYDRO-TRANS-2-PHENYL-1-NAPHTHYL ACETATE; EI-MS
Formula: C18H18O2
Exact mass: 266.13068
Instrument type: EI-MS
m/z	relative intensity
43	23
60	53
91	650
92	3
107	13
120	107
128	150
129	2
146	20
162	13
191	50
202	1
203	23
204	999
205	150
206	1
222	3
223	3
224	30
225	7
