Mass spectrum: 1,3-DIMETHOXYBENZENE; EI-MS
Formula: C8H10O2
Exact mass: 138.06808
Instrument type: EI-MS
m/z	relative intensity
15	35
26	15
27	15
28	23
37	13
38	49
39	85
41	113
50	46
51	62
52	102
53	17
62	28
63	100
64	97
65	165
66	15
67	24
69	23
74	13
76	12
77	89
78	216
79	61
80	62
92	69
93	66
94	31
95	204
96	12
105	11
107	51
108	151
109	265
110	20
123	11
137	25
138	999
139	92
