Mass spectrum: 1-ALLYL-2-PYRAZOLINE; EI-MS
Formula: C6H10N2
Exact mass: 110.0844
Instrument type: EI-MS
m/z	relative intensity
29	32
30	36
38	27
39	26
40	49
41	500
42	266
43	4
44	33
52	19
53	16
54	16
55	191
56	83
57	75
67	7
68	100
69	200
70	18
81	10
82	92
83	999
84	42
109	18
110	415
111	33
