Mass spectrum: ISOPENTYL HEXANOATE; EI-MS
Formula: C11H22O2
Exact mass: 186.16198
Instrument type: EI-MS
m/z	relative intensity
27	127
29	140
39	81
41	235
42	121
43	613
44	18
45	18
53	17
55	277
56	28
57	18
60	39
61	12
69	54
70	999
71	411
72	21
73	31
87	22
99	427
100	26
115	13
116	13
117	104
143	19
