Mass spectrum: NERAL; EI-MS
Name: (Z)-3,7-DIMETHYL-2,6-OCTADIENAL
Formula: C10H16O
Exact mass: 152.12012
Instrument type: EI-MS
m/z	relative intensity
55	93
59	257
67	135
69	999
82	196
84	275
94	244
95	184
107	41
109	256
119	78
123	37
134	50
137	50
