Mass spectrum: 2-(3-HYDROXYBUTOXY)-N-(2-(DIETHYLAMINO)ETHYL)-3-PYRIDINECARBOXAMIDE; EI-MS
Formula: C16H27N3O3
Exact mass: 309.20524
Instrument type: EI-MS
m/z	relative intensity
43	2
56	4
58	24
70	3
71	19
72	8
84	11
85	6
86	999
87	80
95	2
96	1
99	160
100	12
113	4
121	1
122	10
165	11
211	3
221	4
237	7
238	2
294	2
