Mass spectrum: TRIPHENYLMETHANOL; EI-MS
Name: TRIPHENYLCARBINOL
Formula: C19H16O
Exact mass: 260.12012
Instrument type: EI-MS
m/z	relative intensity
154	506
155	252
156	27
165	3
181	38
182	299
183	999
184	14
185	12
243	17
259	12
260	29
261	59
