Mass spectrum: 4-BENZOYL-3,5-DIMETHYLISOXAZOLE; EI-MS
Formula: C12H11NO2
Exact mass: 201.07898
Instrument type: EI-MS
m/z	relative intensity
26	43
27	102
29	38
38	4
40	68
41	110
42	77
43	57
50	98
51	936
52	60
53	3
54	60
55	30
62	42
63	9
64	25
65	34
67	30
68	3
69	21
74	34
75	47
76	6
77	880
78	8
79	17
80	3
81	34
82	204
84	34
88	2
89	89
90	48
91	94
92	5
96	17
101	17
102	30
104	5
105	999
106	81
110	34
115	4
116	30
117	43
118	48
119	3
123	21
124	187
125	17
126	1
127	30
128	25
129	47
130	15
131	68
132	25
144	30
145	2
155	21
158	140
159	89
160	3
172	25
173	17
183	21
184	4
185	13
186	408
187	51
199	4
200	545
201	492
202	47
