Mass spectrum: 3-ISOQUINOLONE; EI-MS
Formula: C11H11NO4
Exact mass: 221.06881
Instrument type: EI-MS
m/z	relative intensity
28	41
38	13
39	80
41	11
50	34
51	86
52	79
58	35
59	21
62	29
63	74
64	18
65	47
73	12
74	11
77	52
78	140
89	67
90	52
91	84
92	11
102	21
103	127
104	999
105	100
106	13
116	12
117	69
118	155
119	16
146	99
147	375
148	38
