Mass spectrum: 1-METHYL-1-BORACYCLOHEPTA-2,4,6-TRIENE; EI-MS
Formula: C7H9B
Exact mass: 104.07973
Instrument type: EI-MS
m/z	relative intensity
43	21
44	30
45	40
49	17
50	132
51	176
52	92
61	70
62	38
63	125
69	36
73	30
74	49
75	47
76	90
77	173
78	296
79	64
86	16
87	82
88	74
89	281
101	34
102	247
103	999
104	279
105	35
