Mass spectrum: TRIETHYLMETHYLSILANE; EI-MS
Formula: C7H18Si
Exact mass: 130.11778
Instrument type: EI-MS
m/z	relative intensity
43	21
45	220
47	12
53	11
55	26
57	35
58	11
70	11
71	35
72	40
73	999
74	37
75	48
87	72
101	856
102	93
103	39
115	34
130	88
131	14
