Mass spectrum: 2-METHOXY-6-PHENYL-4-PYRONE; EI-MS
Formula: C12H10O3
Exact mass: 202.06299
Instrument type: EI-MS
m/z	relative intensity
41	50
42	80
43	70
49	100
50	160
61	60
69	200
75	60
76	100
77	260
102	999
103	110
104	60
131	130
159	150
174	180
202	260
203	40
