Mass spectrum: ALPHA-BUTYLCINNAMALDEHYDE; EI-MS
Formula: C13H16O
Exact mass: 188.12012
Instrument type: EI-MS
m/z	relative intensity
27	198
29	102
39	212
41	158
42	24
43	52
50	49
51	146
52	39
53	60
54	14
55	56
62	18
63	100
64	23
65	121
66	12
67	44
68	11
69	20
71	15
74	26
75	40
76	36
77	176
78	135
79	44
81	34
87	14
89	91
90	11
91	757
92	72
95	47
97	78
101	15
102	75
103	82
104	100
105	55
110	17
113	15
114	18
115	823
116	304
117	999
118	165
119	24
127	88
128	159
129	768
130	104
131	366
132	66
133	20
141	134
142	30
143	13
144	27
145	390
146	81
147	12
155	36
157	53
158	27
159	76
160	28
173	28
187	341
188	579
189	77
