Mass spectrum: 4-HEXYLRESORCINOL; EI-MS
Name: 4-HEXYL-1,3-DIHYDROXYBENZENE
Formula: C12H18O2
Exact mass: 194.13068
Instrument type: EI-MS
m/z	relative intensity
41	19
43	14
55	19
65	1
67	19
69	14
77	15
95	2
110	10
123	999
124	79
147	5
149	11
194	143
195	17
