Mass spectrum: TETRAETHYL TIN; EI-MS
Formula: C8H20Sn
Exact mass: 236.0587
Instrument type: EI-MS
m/z	relative intensity
45	80
55	187
56	40
57	267
67	40
69	133
70	53
71	133
79	13
81	27
82	13
83	80
85	53
95	13
97	40
109	13
117	40
118	53
119	107
120	93
121	93
123	13
125	13
133	67
134	27
135	133
136	27
137	187
139	27
141	27
145	107
146	40
147	253
148	80
149	427
150	27
151	200
153	120
154	27
155	160
156	27
157	53
175	93
176	40
177	160
178	53
179	213
181	27
182	27
183	147
184	200
185	227
186	147
187	53
191	53
192	13
193	93
194	13
195	133
197	27
203	13
205	53
207	67
209	40
211	107
212	13
213	120
215	27
249	80
250	80
251	280
252	267
253	547
254	360
255	600
256	280
257	467
258	67
259	187
260	27
261	133
279	67
280	27
281	160
282	93
283	253
284	93
285	240
286	40
287	147
289	40
291	13
307	40
308	40
309	173
310	120
311	400
312	227
313	427
314	147
315	347
316	27
317	133
318	13
319	53
335	40
336	27
337	173
338	133
339	413
340	267
341	507
342	227
343	440
344	80
345	213
346	27
347	93
349	13
365	120
366	93
367	360
368	293
369	747
370	453
371	760
372	307
373	6
374	93
375	200
376	40
377	133
391	13
393	147
394	147
395	427
396	387
397	920
398	600
399	999
400	453
401	773
402	173
403	293
404	53
405	187
427	13
429	13
