Mass spectrum: N-ACETYL-VALINE METHYLESTER; EI-MS
Formula: C8H15NO3
Exact mass: 173.10519
Instrument type: EI-MS
m/z	relative intensity
14	12
15	290
27	90
28	24
29	57
30	90
31	11
33	8
39	70
40	17
41	98
42	5
43	582
44	17
45	12
53	1
54	21
55	187
56	107
57	8
59	24
60	143
69	13
70	5
71	48
72	999
73	54
74	3
82	16
83	28
84	10
88	37
89	65
98	15
99	158
100	1
102	10
114	521
115	44
116	1
126	10
130	19
131	37
142	1
173	9
