Mass spectrum: PHENYL SALICYLATE; EI-MS
Name: SALOL
Formula: C13H10O3
Exact mass: 214.06299
Instrument type: EI-MS
m/z	relative intensity
40	18
50	16
51	25
53	23
62	13
63	45
64	35
65	181
66	25
92	45
93	79
94	29
120	24
121	999
122	67
214	77
215	13
