Mass spectrum: (PENTAFLUOROPHENYL)DIFLUOROPHOSPHINE; EI-MS
Formula: C6F7P
Exact mass: 235.96258
Instrument type: EI-MS
m/z	relative intensity
31	45
50	17
69	999
79	10
81	30
88	14
93	62
98	17
99	24
110	25
117	172
129	14
148	470
149	33
167	20
168	3
198	2
217	104
236	910
237	63
