Mass spectrum: PYRIDINE; EI-MS
Formula: C5H5N
Exact mass: 79.0422
Instrument type: EI-MS
m/z	relative intensity
29	310
30	123
31	59
34	2
36	29
37	42
38	62
39	15
40	469
41	79
42	65
43	15
45	55
46	21
48	24
49	6
50	352
51	391
52	755
53	11
55	52
56	26
57	23
60	2
64	33
67	24
69	23
75	3
76	24
77	23
78	127
79	999
80	65
