Mass spectrum: 3,3,5-TRIMETHYLCYCLOHEXANONE; EI-MS
Formula: C9H16O
Exact mass: 140.12012
Instrument type: EI-MS
m/z	relative intensity
15	32
27	183
28	27
29	155
38	12
39	276
40	38
41	486
42	138
43	68
51	20
52	10
53	56
54	18
55	440
56	377
57	91
67	33
69	544
70	33
77	10
79	12
81	15
82	19
83	999
84	90
85	13
96	19
97	38
98	24
107	11
125	72
140	183
141	14
