Mass spectrum: 2-PHENYLETHYL BUTYL ETHER; EI-MS
Formula: C12H18O
Exact mass: 178.13577
Instrument type: EI-MS
m/z	relative intensity
27	82
29	149
31	11
39	61
41	207
43	16
45	12
50	11
51	47
52	11
55	12
57	999
58	33
63	16
65	64
77	103
78	62
79	65
87	144
89	12
91	239
92	115
103	46
104	35
105	160
106	163
107	11
160	16
178	49
