Mass spectrum: 4-METHYL-6-PHENYLPYRIMIDINE; EI-MS
Formula: C11H10N2
Exact mass: 170.0844
Instrument type: EI-MS
m/z	relative intensity
39	240
40	110
50	100
51	24
52	100
76	270
77	140
102	4
103	200
104	90
115	100
116	2
143	540
155	220
170	999
171	140
