Mass spectrum: 3,5-DIPHENYL-2,4,7-OCTANETRIONE; EI-MS
Formula: C20H20O3
Exact mass: 308.14124
Instrument type: EI-MS
m/z	relative intensity
27	66
39	50
41	95
42	95
43	628
45	33
50	15
51	49
55	270
56	34
57	80
60	28
63	23
65	25
69	23
71	25
72	18
77	102
78	34
79	31
89	37
90	37
91	95
92	18
94	15
102	19
103	73
104	34
105	117
106	16
115	73
116	20
117	46
118	42
119	42
130	15
131	47
133	234
134	102
135	17
145	19
147	66
148	28
161	999
162	182
163	19
174	32
175	51
176	15
178	28
179	20
202	24
203	24
204	21
205	48
219	18
223	26
233	21
246	21
247	255
248	175
249	38
250	17
265	38
266	33
272	20
273	18
274	12
275	10
290	628
291	146
292	20
308	131
309	35
310	4
