Mass spectrum: ISONICOTINIC ACID TRIMETHYLSILYL ESTER; EI-MS
Name: PYRIDINE-4-CARBOXYLIC ACID TRIMETHYLSILYLESTER
Formula: C9H13NO2Si
Exact mass: 195.07156
Instrument type: EI-MS
m/z	relative intensity
43	23
45	50
47	44
50	4
51	189
52	10
57	16
59	1
61	10
73	40
74	40
76	1
77	10
78	291
79	13
83	1
90	50
106	406
107	16
136	26
137	33
138	13
180	999
181	14
182	47
195	61
