Mass spectrum: CINNAMALDEHYDE; EI-MS
Formula: C9H8O
Exact mass: 132.05751
Instrument type: EI-MS
m/z	relative intensity
15	13
26	27
27	65
29	103
37	19
38	40
39	105
49	14
50	193
51	484
52	96
53	23
54	15
55	12
61	21
62	52
63	101
64	14
65	18
66	15
73	16
74	88
75	78
76	81
77	550
78	433
79	23
87	13
89	17
91	24
101	17
102	108
103	637
104	352
105	38
130	15
131	999
132	752
133	64
