Mass spectrum: PROMAZINE; EI-MS
Name: N,N-DIMETHYL-10H-PHENOTHIAZINE-10-PROPANAMINE
Formula: C17H20N2S
Exact mass: 284.13472
Instrument type: EI-MS
m/z	relative intensity
52	13
56	13
57	20
58	999
59	56
63	15
65	11
69	21
70	43
71	23
72	38
77	22
84	48
85	167
86	393
87	2
109	13
127	21
128	14
139	17
140	14
152	23
153	17
154	41
166	28
167	40
171	18
178	12
179	26
180	107
181	18
184	13
196	12
197	26
198	169
199	271
200	45
201	14
210	20
212	96
213	59
214	12
223	26
224	53
225	59
226	34
238	285
239	116
240	31
284	573
285	122
286	37
