Mass spectrum: 1-METHYLNAPHTHALENE; EI-MS
Formula: C11H10
Exact mass: 142.07825
Instrument type: EI-MS
m/z	relative intensity
26	14
27	41
38	20
39	99
50	66
51	84
52	16
58	68
61	12
62	44
63	135
64	18
65	32
69	13
70	36
71	82
74	45
75	41
76	22
77	22
86	28
87	37
88	16
89	59
91	18
98	11
102	14
113	24
114	16
115	414
116	38
126	14
139	102
140	32
141	768
142	999
143	107
