Mass spectrum: METHYL TERT-BUTYL ETHER; EI-MS
Formula: C5H12O
Exact mass: 88.08882
Instrument type: EI-MS
m/z	relative intensity
14	28
15	184
26	30
27	13
28	33
29	228
30	24
31	3
33	22
38	30
39	133
40	3
41	270
42	60
43	270
45	6
55	32
56	40
57	263
58	3
73	999
79	46
