Mass spectrum: COUMARIN; EI-MS
Formula: C9H6O2
Exact mass: 146.03678
Instrument type: EI-MS
m/z	relative intensity
17	23
18	81
26	17
27	47
31	23
32	12
37	23
38	93
39	145
49	12
50	70
51	81
53	12
59	70
61	41
62	105
63	267
64	81
74	12
75	23
76	12
86	17
87	17
89	273
90	378
91	29
92	23
118	889
119	64
146	999
147	111
