Mass spectrum: TRIDECANEDIOIC ACID BIS(TRIMETHYLSILYL) ESTER; EI-MS
Name: DI(TRIMETHYLSILYL) TRIDECANEDIOATE
Formula: C19H40O4Si2
Exact mass: 388.24651
Instrument type: EI-MS
m/z	relative intensity
45	100
55	289
69	121
73	999
75	792
81	144
83	153
95	12
97	107
117	279
129	247
147	15
149	207
204	181
217	221
257	17
373	396
374	121
375	34
