Mass spectrum: 1-BROMO-4-CHLOROBENZENE; EI-MS
Formula: C6H4BrCl
Exact mass: 189.91849
Instrument type: EI-MS
m/z	relative intensity
40	11
42	13
43	128
45	67
49	24
50	149
51	39
55	30
56	11
58	56
59	97
61	14
73	41
74	148
75	319
76	62
77	19
78	17
84	14
85	24
95	48
96	67
97	16
110	15
111	653
112	48
113	203
114	15
155	12
157	11
190	780
191	56
192	999
193	68
194	251
195	17
