Mass spectrum: 1,1,2,3,3-PENTAMETHYLINDAN; EI-MS
Formula: C14H20
Exact mass: 188.1565
Instrument type: EI-MS
m/z	relative intensity
29	16
39	27
41	35
43	5
51	22
55	14
57	138
64	2
65	28
77	34
78	23
79	3
87	16
91	64
103	16
105	2
115	57
116	18
117	81
127	2
128	82
129	64
130	14
131	41
132	42
141	48
142	39
143	5
144	18
145	35
157	21
158	2
173	999
174	140
175	11
188	21
189	38
