Mass spectrum: (Z)-1-TRIMETHYSILYLPROPENE; EI-MS
Formula: C6H14Si
Exact mass: 114.08648
Instrument type: EI-MS
m/z	relative intensity
43	29
46	14
57	14
58	31
59	339
60	34
61	14
67	30
73	382
75	43
78	54
82	16
83	20
99	999
100	72
101	29
114	64
