Mass spectrum: PALLADIUM DI(3-BROMOACETYLACETONATE); EI-MS
Formula: C10H12Br2O4Pd
Exact mass: 459.81372
Instrument type: EI-MS
m/z	relative intensity
13	2
14	13
15	64
16	0
17	20
18	83
25	5
26	0
27	61
28	75
29	31
30	0
31	17
32	11
36	3
37	1
38	15
39	45
40	12
41	0
42	45
43	999
44	56
45	2
47	1
48	1
49	3
50	1
51	6
52	3
53	11
54	1
55	53
56	6
57	21
58	13
59	1
60	11
61	3
62	0
63	2
65	2
66	2
67	1
68	10
69	19
70	3
71	1
72	12
73	7
74	6
76	0
77	6
78	10
79	6
80	0
81	10
82	9
83	15
84	1
85	100
86	8
87	2
88	0
91	5
92	11
93	11
94	0
95	5
96	2
97	5
98	0
99	22
100	79
101	6
102	0
103	2
105	8
106	1
107	1
108	1
109	3
110	1
111	0
112	2
113	3
115	1
116	0
119	23
120	2
121	10
122	0
123	3
124	1
125	2
126	0
127	1
128	1
129	1
134	5
135	11
136	53
137	4
138	5
139	3
141	3
149	3
151	0
152	3
153	4
154	2
155	0
163	45
164	1
165	43
166	0
178	25
179	1
180	24
181	0
186	1
188	1
198	6
