Mass spectrum: 1,1-DIISOPROPYL-4,4-DIMETHYL-2-TETRAZENE; EI-MS
Formula: C8H20N4
Exact mass: 172.1688
Instrument type: EI-MS
m/z	relative intensity
27	195
29	21
30	79
39	5
40	15
41	207
42	300
43	86
44	999
45	73
56	39
57	2
58	773
59	636
60	15
70	10
71	11
72	359
73	15
84	5
85	12
86	61
99	9
100	1
157	66
158	6
172	819
173	68
