Mass spectrum: BUTYL VALERATE; EI-MS
Formula: C9H18O2
Exact mass: 158.13068
Instrument type: EI-MS
m/z	relative intensity
15	11
26	18
27	254
29	522
30	13
31	20
39	145
41	562
42	69
43	89
45	23
53	16
54	10
55	161
56	815
57	809
58	33
59	10
60	244
61	66
73	168
74	12
75	43
83	10
85	999
86	74
87	20
101	23
102	38
103	701
104	42
115	20
116	36
