Mass spectrum: 1-IODOOCTANE; EI-MS
Formula: C8H17I
Exact mass: 240.03749
Instrument type: EI-MS
m/z	relative intensity
42	222
43	447
44	46
53	12
55	88
56	18
57	934
58	47
69	23
71	999
72	62
84	11
85	29
113	268
114	28
141	13
155	90
169	12
183	12
240	132
241	13
