Mass spectrum: 2-PROPYLPENTANOIC ACID METHYL ESTER; EI-MS
Formula: C9H18O2
Exact mass: 158.13068
Instrument type: EI-MS
m/z	relative intensity
43	10
51	7
53	24
54	1
55	167
56	32
57	402
58	1
67	7
69	42
70	7
78	1
79	10
83	53
84	21
87	999
88	67
91	14
93	10
97	2
98	7
99	46
115	74
116	44
117	32
127	56
129	60
130	7
