Mass spectrum: 2-PHENOXY ETHANOL; EI-MS
Formula: C8H10O2
Exact mass: 138.06808
Instrument type: EI-MS
m/z	relative intensity
17	51
18	71
27	51
28	107
39	77
45	83
51	79
65	75
66	91
77	233
79	23
94	999
95	128
107	52
108	46
109	48
137	33
138	279
