Mass spectrum: 3-ACETYLINDOLE; EI-MS
Formula: C10H9NO
Exact mass: 159.06841
Instrument type: EI-MS
m/z	relative intensity
39	30
41	26
43	105
44	2
45	63
55	23
57	28
60	2
62	15
63	65
69	70
71	1
72	12
77	22
81	16
88	1
89	188
90	12
115	23
116	13
130	23
144	999
145	70
159	44
160	21
