Mass spectrum: PHENETHYL ACETATE; EI-MS
Formula: C10H12O2
Exact mass: 164.08373
Instrument type: EI-MS
m/z	relative intensity
18	10
28	10
43	850
44	2
45	10
71	30
75	40
76	1
91	150
92	40
104	40
105	999
106	390
107	20
