Mass spectrum: META-ETHYL ANILINE; EI-MS
Formula: C8H11N
Exact mass: 121.08915
Instrument type: EI-MS
m/z	relative intensity
27	19
28	76
30	15
39	65
41	29
42	20
44	28
51	35
52	26
53	37
58.5	43
59.5	24
63	24
65	60
66	31
77	181
78	51
79	156
80	44
89	14
91	64
92	18
93	88
94	37
103	40
104	28
106	999
107	114
118	34
119	26
120	183
121	738
122	92
