Mass spectrum: 2-(2-HYDROXY-3,5-DIPENTYL)PHENYL-BENZOTRIAZOLE; EI-MS
Formula: C22H29N3O
Exact mass: 351.23106
Instrument type: EI-MS
m/z	relative intensity
29	35
41	54
43	216
55	27
65	25
71	69
91	37
92	81
105	46
118	51
119	23
120	31
131	23
133	94
146	83
147	21
252	40
295	23
308	24
322	999
323	225
324	28
336	51
351	186
352	32
