Mass spectrum: 1,1,3,3-TETRAMETHYL-1-BUTYLAMINE; EI-MS
Formula: C8H19N
Exact mass: 129.15175
Instrument type: EI-MS
m/z	relative intensity
15	19
18	76
27	35
28	2
29	54
30	33
39	37
41	10
42	82
55	29
560	280
570	80
58	999
59	38
72	21
114	30
