Mass spectrum: METHYL 9-OCTADECENOATE; EI-MS
Formula: C19H36O2
Exact mass: 296.27153
Instrument type: EI-MS
m/z	relative intensity
43	495
45	29
53	173
54	943
55	169
56	262
58	115
65	2
66	22
67	314
68	179
69	48
70	116
71	87
73	44
74	999
75	141
77	26
79	88
80	6
81	266
82	178
83	335
84	24
85	63
87	509
88	49
91	5
92	22
93	49
94	53
95	19
96	220
97	247
98	220
99	3
101	71
105	23
107	36
108	3
109	99
110	116
111	122
114	3
115	53
119	23
120	40
123	8
124	63
125	64
128	28
129	6
133	23
135	42
137	53
138	5
139	42
141	37
143	98
151	4
152	50
153	25
157	22
165	2
166	39
171	25
180	57
185	3
194	28
199	33
220	22
221	2
222	71
227	25
236	33
242	3
264	205
265	95
270	51
294	4
296	56
297	28
