Mass spectrum: (S)-(-)-METHYL LACTATE; EI-MS
Formula: C4H8O3
Exact mass: 104.04734
Instrument type: EI-MS
m/z	relative intensity
29	10
33	66
43	39
44	14
45	999
46	27
59	34
61	89
77	37
89	43
104	105
