Mass spectrum: BUTYLCYCLOHEXANE; EI-MS
Formula: C10H20
Exact mass: 140.1565
Instrument type: EI-MS
m/z	relative intensity
27	132
28	27
29	158
39	14
40	22
41	408
42	79
43	10
51	12
53	53
54	76
55	86
56	138
59	41
65	12
67	20
68	44
69	108
70	57
77	1
79	15
81	729
83	999
84	6
96	11
97	35
98	11
111	1
140	239
141	29
