Mass spectrum: DIMETHYL 3-HYDROXY-PHTHALATE; EI-MS
Formula: C10H10O5
Exact mass: 210.05282
Instrument type: EI-MS
m/z	relative intensity
15	61
39	29
53	25
62	27
63	76
65	65
92	46
93	62
108	52
119	22
120	28
121	29
136	34
149	56
151	63
179	999
180	104
210	235
211	25
