Mass spectrum: ANETHOLE; EI-MS
Formula: C10H12O
Exact mass: 148.08882
Instrument type: EI-MS
m/z	relative intensity
15	44
27	46
38	12
39	71
41	24
50	37
51	80
52	32
53	33
55	40
62	19
63	64
64	18
65	53
74	29
75	18
76	18
77	218
78	75
79	146
89	37
90	12
91	119
92	16
93	14
102	26
103	120
104	34
105	201
106	15
107	14
115	126
116	47
117	233
118	26
119	18
121	160
122	12
131	28
132	25
133	214
134	18
146	15
147	398
148	999
149	89
