Mass spectrum: ACETOPHENONE; EI-MS
Formula: C8H8O
Exact mass: 120.05751
Instrument type: EI-MS
m/z	relative intensity
15	26
27	22
37	10
38	24
39	57
42	14
43	158
49	11
50	142
51	317
52	24
53	11
62	15
63	24
65	17
74	47
75	22
76	28
77	798
78	82
91	14
105	999
106	80
120	299
121	20
