Mass spectrum: 2-METHOXYPYRIMIDINE; EI-MS
Formula: C5H6N2O
Exact mass: 110.04801
Instrument type: EI-MS
m/z	relative intensity
38	20
39	59
40	260
41	3
42	43
51	40
52	129
53	67
54	69
55	16
56	106
57	2
58	25
66	17
67	25
68	5
79	148
80	100
81	271
82	5
95	20
109	273
110	999
111	84
