Mass spectrum: METHYL PROPYL ETHER; EI-MS
Formula: C4H10O
Exact mass: 74.07316
Instrument type: EI-MS
m/z	relative intensity
15	76
26	12
27	83
28	3
29	109
31	16
39	37
41	1
42	14
43	22
45	999
46	2
59	3
73	6
74	16
