Mass spectrum: 1,6-DIMETHYL-5-METHYLENE-3,4-BENZO-2-THIABICYCLO(4.1.0)HEPT-3-ENE; EI-MS
Formula: C13H14S
Exact mass: 202.08162
Instrument type: EI-MS
m/z	relative intensity
27	130
29	50
39	280
41	180
43	60
45	170
47	90
50	70
51	180
52	50
53	80
55	50
56	60
57	70
58	50
59	180
61	40
62	60
63	140
64	40
65	90
69	100
74	60
75	80
76	60
77	140
78	50
79	40
82	150
84	60
85	50
86	60
87	60
89	80
90	50
91	220
92	60
101	40
102	70
103	60
105	50
106	60
115	200
116	50
117	210
119	180
121	80
127	80
128	250
129	100
134	130
135	50
139	50
141	150
142	60
143	100
147	250
148	70
152	80
153	100
154	110
155	100
156	170
157	50
158	50
159	50
160	60
161	330
162	80
169	210
170	60
171	170
172	250
173	80
174	50
175	80
184	60
185	80
186	70
187	999
188	200
189	70
201	150
202	720
203	150
204	70
205	20
