Mass spectrum: METHYL 2-CYCLOHEXYL-2-METHYLPENTANOATE; EI-MS
Formula: C13H24O2
Exact mass: 212.17763
Instrument type: EI-MS
m/z	relative intensity
31	19
55	395
59	96
67	112
69	167
81	95
83	189
97	134
101	999
109	42
111	33
130	938
131	76
153	102
154	12
169	14
170	37
212	1
