Mass spectrum: METHYL 2-FUROATE; EI-MS
Formula: C6H6O3
Exact mass: 126.03169
Instrument type: EI-MS
m/z	relative intensity
15	34
27	14
29	52
37	47
38	107
39	239
41	11
51	10
53	18
59	12
66	13
67	30
68	47
81	10
95	999
96	90
126	345
127	22
