Mass spectrum: BUTYL PHENYL ETHER; EI-MS
Name: BUTOXYBENZENE
Formula: C10H14O
Exact mass: 150.10447
Instrument type: EI-MS
m/z	relative intensity
27	32
29	106
39	63
40	10
41	83
50	10
51	41
55	18
57	32
65	46
66	65
77	73
94	999
95	65
107	12
150	153
151	13
