Mass spectrum: 2-SEC-BUTYL-8-METHYL-1,2,3,4-TETRAHYDRO-GAMMA-CARBOLINE; EI-MS
Formula: C16H22N2
Exact mass: 242.1783
Instrument type: EI-MS
m/z	relative intensity
42	32
43	12
44	11
56	20
57	16
77	12
115	26
128	1
154	17
155	13
156	128
157	999
158	150
170	16
185	21
213	15
227	13
241	28
242	100
