Mass spectrum: 4-BENZYLPYRIDINE; EI-MS
Formula: C12H11N
Exact mass: 169.08915
Instrument type: EI-MS
m/z	relative intensity
39	84
51	151
63	73
65	11
77	104
78	56
83.5	45
89	6
91	259
115	131
139	78
140	5
141	111
166	55
167	334
168	75
169	999
170	134
