Mass spectrum: DIETHYL SUCCINATE; EI-MS
Formula: C8H14O4
Exact mass: 174.08921
Instrument type: EI-MS
m/z	relative intensity
43	134
45	185
54	342
55	202
56	78
73	185
74	139
75	2
100	56
101	999
102	117
128	15
129	838
130	47
174	30
175	25
