Mass spectrum: BENZYL NONANOATE; EI-MS
Formula: C16H24O2
Exact mass: 248.17763
Instrument type: EI-MS
m/z	relative intensity
27	97
29	125
39	86
41	229
42	45
43	208
51	33
52	12
53	15
55	119
56	23
57	151
63	18
65	128
67	19
69	71
71	96
77	73
78	15
79	58
81	23
83	16
89	30
90	77
91	999
92	198
93	15
95	12
96	11
97	46
105	18
107	39
108	410
109	28
111	12
121	12
138	10
139	66
141	48
157	41
248	16
