Mass spectrum: METHYL PIVALATE; EI-MS
Formula: C6H12O2
Exact mass: 116.08373
Instrument type: EI-MS
m/z	relative intensity
15	94
27	61
28	28
29	231
31	12
39	90
40	17
41	359
42	31
43	12
55	30
56	263
57	999
58	49
59	42
69	28
73	76
85	87
101	35
116	61
