Mass spectrum: M-CHLOROTOLUENE; EI-MS
Formula: C7H7Cl
Exact mass: 126.02363
Instrument type: EI-MS
m/z	relative intensity
43	16
44	18
45	76
50	33
51	35
61	16
62	34
63	94
64	21
65	82
73	22
74	11
75	23
89	80
90	27
91	999
92	79
99	22
125	122
126	414
127	72
128	135
129	10
