Mass spectrum: 2-ACETYLINDOLE; EI-MS
Formula: C10H9NO
Exact mass: 159.06841
Instrument type: EI-MS
m/z	relative intensity
39	34
41	11
43	121
45	3
51	12
62	17
63	78
69	1
77	18
88	20
89	570
90	5
114	11
115	30
116	165
117	3
130	32
143	12
144	999
145	8
159	860
160	74
