Mass spectrum: OCTADECANOIC ACID TRIMETHYLSILYL ESTER; EI-MS
Formula: C21H44O2Si
Exact mass: 356.31106
Instrument type: EI-MS
m/z	relative intensity
43	306
55	254
57	169
67	10
69	111
73	999
74	100
75	63
117	832
129	351
131	106
132	35
145	179
341	166
356	20
