Mass spectrum: PENTADECANE; EI-MS
Formula: C15H32
Exact mass: 212.2504
Instrument type: EI-MS
m/z	relative intensity
40	28
41	444
42	122
43	999
44	41
53	15
54	17
55	17
56	139
57	978
58	44
67	1
68	10
69	62
70	86
71	50
72	27
82	11
83	32
84	5
85	276
86	19
97	20
98	3
99	65
111	7
112	19
113	3
126	12
127	15
140	8
141	1
154	5
155	8
168	2
169	1
182	1
183	2
212	8
213	2
