Mass spectrum: TRIPHENYLENE; EI-MS
Name: 9,10-BENZOPHENANTHRENE
Formula: C18H12
Exact mass: 228.0939
Instrument type: EI-MS
m/z	relative intensity
43	23
44	13
50	16
51	18
62	13
63	25
74	23
75	38
76	22
86	13
87	51
88	67
98	15
99	47
100	130
101	140
111	29
112	187
113	369
114	222
115	12
150	12
199	12
200	41
201	22
202	38
223	12
224	67
225	64
226	280
227	185
228	999
229	194
230	23
