Mass spectrum: N-ETHYL-P-TOLUENESULFONAMIDE; EI-MS
Formula: C9H13NO2S
Exact mass: 199.0667
Instrument type: EI-MS
m/z	relative intensity
50	26
51	59
52	17
53	13
61	20
62	85
63	29
65	323
66	19
77	45
78	15
79	17
89	84
90	50
91	958
92	169
106	16
107	21
108	13
120	18
134	13
139	33
155	999
156	100
157	61
182	14
184	871
185	81
186	41
198	13
199	336
200	92
201	24
