Mass spectrum: ISOBUTYL BUTYRATE; EI-MS
Formula: C8H16O2
Exact mass: 144.11503
Instrument type: EI-MS
m/z	relative intensity
15	15
27	139
28	26
29	121
31	14
39	74
40	13
41	237
42	37
43	463
44	16
55	26
56	458
57	212
60	60
70	17
71	999
72	48
73	36
88	39
89	173
101	66
114	21
116	15
