Mass spectrum: CAMPHORIC ACID DIMETHYL ESTER; EI-MS
Formula: C12H20O4
Exact mass: 228.13616
Instrument type: EI-MS
m/z	relative intensity
43	13
45	22
51	13
52	3
53	124
54	53
55	328
56	2
59	142
65	31
66	31
67	34
68	346
69	293
70	13
73	20
75	22
77	57
79	106
80	3
81	97
82	128
83	164
85	1
87	48
88	26
91	57
93	25
94	71
95	222
96	253
97	4
99	13
100	17
101	151
102	2
107	75
108	693
109	999
110	9
112	31
113	44
114	53
115	4
121	111
122	31
123	22
125	8
126	53
127	57
128	102
129	1
135	26
136	697
137	408
138	5
139	17
140	62
142	17
146	2
149	40
150	13
153	115
154	9
155	26
159	26
164	293
165	4
167	22
168	586
169	235
170	3
181	22
196	195
197	88
198	13
