Mass spectrum: BUTYL BENZOATE; EI-MS
Name: BENZOIC ACID BUTYL ESTER
Formula: C11H14O2
Exact mass: 178.09938
Instrument type: EI-MS
m/z	relative intensity
39	37
41	120
43	57
50	27
51	112
55	71
56	214
57	79
76	25
77	475
78	40
79	103
105	999
106	81
121	30
122	121
123	460
124	35
