Mass spectrum: 3,4-DIHYDRO-6-HYDROXY-2-(2-(IMIDAZOL-1-YL)ETHYL)-2,5,7,8-TETRAMETHYL-2H-1-BENZOPYRAN; EI-MS
Formula: C18H24N2O2
Exact mass: 300.18378
Instrument type: EI-MS
m/z	relative intensity
28	86
32	41
41	50
43	5
44	38
69	217
73	41
77	5
81	63
82	167
105	59
121	5
122	53
135	47
136	38
137	999
138	97
164	58
203	91
300	33
301	63
