Mass spectrum: 3,3-DIMETHYL-2-BUTANOL; EI-MS
Formula: C6H14O
Exact mass: 102.10447
Instrument type: EI-MS
m/z	relative intensity
27	12
29	94
39	11
41	350
42	17
43	97
44	36
45	676
46	16
47	10
55	37
56	590
57	999
58	47
59	20
69	295
70	18
71	24
85	200
86	16
87	438
88	24
101	17
102	37
