Mass spectrum: DIMETHYL SEBACATE; EI-MS
Formula: C12H22O4
Exact mass: 230.15181
Instrument type: EI-MS
m/z	relative intensity
40	13
41	39
43	176
45	20
55	383
56	34
57	39
59	120
67	60
68	46
69	224
70	28
71	16
73	69
74	926
75	66
79	22
80	35
81	80
82	51
83	366
84	720
85	61
87	366
88	34
93	27
94	45
95	64
96	128
97	532
98	999
99	71
100	20
101	110
102	14
104	15
106	22
107	53
109	38
110	93
111	134
112	103
113	36
114	32
115	131
116	19
119	15
120	37
121	128
122	24
123	35
124	125
125	905
126	72
127	24
128	20
129	19
130	15
137	41
138	568
139	184
140	25
142	34
143	10
144	84
147	12
148	85
149	27
154	20
155	14
156	52
157	837
158	83
165	18
166	542
167	82
170	86
171	12
180	13
198	98
199	798
200	105
201	18
230	0
