Mass spectrum: 2-METHYLPENTYL ACETATE; EI-MS
Formula: C8H16O2
Exact mass: 144.11503
Instrument type: EI-MS
m/z	relative intensity
15	25
27	85
28	17
29	78
39	64
40	10
41	150
42	102
43	999
44	24
53	11
55	112
56	348
57	23
61	66
69	113
70	25
71	39
72	87
73	140
74	76
75	10
83	21
84	203
85	18
