Mass spectrum: METHYL 2-TRIMETHYLSILOXY-OCTADECANOATE; EI-MS
Formula: C22H46O3Si
Exact mass: 386.32162
Instrument type: EI-MS
m/z	relative intensity
39	5
40	46
41	98
42	13
43	187
44	19
45	38
47	3
48	15
53	16
54	20
55	11
56	12
57	125
58	13
59	8
61	18
66	10
67	56
68	3
69	114
70	23
71	81
72	2
73	536
74	64
75	151
76	2
77	18
79	18
80	11
81	6
82	31
83	147
84	21
85	6
87	23
88	12
89	263
90	3
91	47
92	9
93	11
95	6
96	14
97	127
98	22
99	2
101	33
102	12
103	153
104	2
105	24
107	22
108	13
109	3
110	13
111	53
112	12
113	1
115	32
116	26
117	17
119	3
121	10
123	16
124	12
125	2
127	11
129	109
130	22
131	2
135	10
137	10
139	11
143	2
145	25
146	28
147	5
149	1
157	9
159	78
160	15
161	2
162	19
171	9
185	15
199	1
201	9
253	13
257	9
271	1
311	12
325	14
326	26
327	999
328	280
329	72
330	14
343	5
344	17
369	15
370	25
371	37
372	112
373	30
374	9
386	16
