Mass spectrum: META-TOLUIDINE; EI-MS
Formula: C7H9N
Exact mass: 107.0735
Instrument type: EI-MS
m/z	relative intensity
27	31
30	15
38	21
39	78
40	15
41	30
42	19
50	24
51	52
52	49
52.5	22
53	61
53.5	38
54	18
62	11
63	27
64	13
65	41
66	18
77	167
78	52
79	184
80	46
89	32
90	27
91	33
104	26
106	999
107	956
108	76
