Mass spectrum: DIMETHOXYDIPHENYLSILANE; EI-MS
Formula: C14H16O2Si
Exact mass: 244.09196
Instrument type: EI-MS
m/z	relative intensity
15	33
29	35
31	23
39	20
45	26
50	47
51	143
52	13
53	18
59	181
60	20
75	15
76	15
77	130
78	61
79	18
90	18
91	164
92	19
105	76
106	18
107	212
108	25
127	26
136	64
137	264
138	36
139	15
152	30
153	56
154	275
155	49
165	28
166	311
167	999
168	146
169	48
181	46
183	47
206	26
208	25
211	20
213	47
244	393
245	79
246	23
