Mass spectrum: 4-METHOXYPTEROCARPIN; EI-MS
Formula: C18H16O6
Exact mass: 328.09469
Instrument type: EI-MS
m/z	relative intensity
149	160
151	40
162	150
163	50
175	60
178	20
253	40
281	120
282	60
283	40
298	60
313	200
327	30
328	999
329	170
