Mass spectrum: PHENAGLYCODOL; EI-MS
Name: 2-(4-CHLOROPHENYL)-3-METHYL-2,3-BUTANEDIOL
Formula: C11H15ClO2
Exact mass: 214.07606
Instrument type: EI-MS
m/z	relative intensity
41	79
42	19
43	719
44	2
50	29
51	49
57	39
58	5
59	999
60	49
73	14
74	2
75	69
76	19
77	79
78	2
111	74
112	39
113	49
114	2
115	19
120	19
121	409
122	4
125	49
138	34
139	109
140	2
141	99
142	14
143	29
153	7
154	34
155	379
156	449
157	15
158	139
159	19
179	9
180	2
181	69
182	24
183	29
