Mass spectrum: 3,4-DIMETHYLANILINE; EI-MS
Name: 3,4-XYLIDINE
Formula: C8H11N
Exact mass: 121.08915
Instrument type: EI-MS
m/z	relative intensity
30	55
32	37
37	20
38	69
39	315
40	63
41	159
42	129
43	18
44	20
45	14
46	43
47	13
49	22
50	107
51	203
52	166
53	197
54	71
58	116
59	139
60	94
61	19
62	38
63	44
64	55
65	114
66	53
67	28
74	17
75	18
76	27
77	383
78	112
79	129
80	75
81	12
89	24
90	16
91	221
92	50
93	125
94	43
102	12
103	66
104	46
105	34
106	1000
107	82
117	20
118	55
119	54
120	939
121	999
122	91
