Mass spectrum: ANILINE-2-SULFONIC ACID; EI-MS
Formula: C6H7NO3S
Exact mass: 173.01466
Instrument type: EI-MS
m/z	relative intensity
17	26
18	92
26	19
27	44
28	111
36	27
38	132
40	6
41	120
42	33
45	15
47	3
48	109
49	13
50	64
51	7
52	194
53	73
54	53
61	3
62	74
63	208
64	330
65	67
66	317
67	44
77	15
78	3
79	33
80	179
81	30
91	999
92	273
93	721
94	67
106	5
108	85
109	22
138	87
155	48
156	55
173	820
174	68
175	40
