Mass spectrum: CROTONIC ACID ETHYL ESTER; EI-MS
Formula: C6H10O2
Exact mass: 114.06808
Instrument type: EI-MS
m/z	relative intensity
27	13
29	86
39	46
40	16
41	221
42	31
45	43
68	49
69	999
70	57
71	16
86	69
87	22
96	12
99	351
100	20
114	42
