Mass spectrum: 2-HYDROXY-4-METHOXYACETOPHENONE; EI-MS
Formula: C9H10O3
Exact mass: 166.06299
Instrument type: EI-MS
m/z	relative intensity
41	10
43	17
65	15
80	12
81	13
93	12
95	64
108	51
123	11
151	999
152	84
166	446
167	44
