Mass spectrum: METHYLCELLOSOLVE ACETATE; EI-MS
Name: 2-METHOXYETHYL ACETATE
Formula: C5H10O3
Exact mass: 118.06299
Instrument type: EI-MS
m/z	relative intensity
14	16
15	161
27	24
28	39
29	76
31	41
42	34
43	999
44	31
45	554
46	14
58	503
59	35
61	11
73	41
88	21
