Mass spectrum: BIS-(2-CYANOETHYL)-AMINE; EI-MS
Formula: C6H9N3
Exact mass: 123.07965
Instrument type: EI-MS
m/z	relative intensity
15	34
26	46
27	103
28	306
29	53
30	21
39	21
40	61
41	76
42	999
43	127
52	61
54	523
55	42
56	59
81	58
82	859
84	52
