Mass spectrum: METHYL 4-METHYLHEPTANE-1,7-DIOATE; EI-MS
Name: 4-METHYLHEPTANEDIOIC ACID DIMETHYL ESTER
Formula: C10H18O4
Exact mass: 202.12051
Instrument type: EI-MS
m/z	relative intensity
31	110
41	300
43	230
55	501
59	190
69	471
74	350
83	370
87	230
96	140
97	999
110	150
111	180
125	160
129	781
139	360
142	230
153	28
155	110
170	60
171	350
