Mass spectrum: 1-HEPTANOL; EI-MS
Name: HEPTYL ALCOHOL
Formula: C7H16O
Exact mass: 116.12012
Instrument type: EI-MS
m/z	relative intensity
15	13
18	39
26	20
27	390
28	132
29	529
30	13
31	432
39	255
40	48
41	999
42	555
43	710
44	66
45	34
53	26
54	23
55	278
56	273
57	84
68	29
69	113
70	204
71	13
83	17
