Mass spectrum: 2-CHLOROBUTANE; EI-MS
Name: SEC-BUTYL CHLORIDE
Formula: C4H9Cl
Exact mass: 92.03928
Instrument type: EI-MS
m/z	relative intensity
15	18
26	52
27	405
28	106
29	429
38	23
39	149
40	24
41	650
42	30
43	16
45	22
49	29
50	22
51	24
53	21
55	82
56	957
57	999
58	43
62	136
63	443
64	52
65	139
77	52
79	19
