Mass spectrum: 5-METHYL-2-FURFURAL; EI-MS
Formula: C6H6O2
Exact mass: 110.03678
Instrument type: EI-MS
m/z	relative intensity
14	11
15	35
26	49
27	256
28	25
29	68
37	36
38	54
39	136
41	11
42	23
43	104
49	24
50	101
51	130
52	69
53	525
54	48
55	12
79	21
80	17
81	107
82	11
95	32
96	20
109	864
110	999
111	70
