Mass spectrum: DI-N-PROPYLHYDRAZONE FORMALDEHYDE; EI-MS
Name: FORMALDEHYDE DIPROPYLHYDRAZONE
Formula: C7H16N2
Exact mass: 128.13135
Instrument type: EI-MS
m/z	relative intensity
28	107
29	69
30	25
31	7
39	40
40	6
41	134
42	10
43	280
44	15
54	7
55	1
56	33
57	800
58	36
70	4
71	37
85	12
86	24
99	999
100	65
128	253
129	28
