Mass spectrum: 1,2-BENZENEDICARBOXYLIC ACID BENZYL METHYLESTER; EI-MS
Name: METHYLBENZYL PHTHALATE
Formula: C16H14O4
Exact mass: 270.08921
Instrument type: EI-MS
m/z	relative intensity
65	26
77	61
79	23
90	14
91	772
92	307
93	20
104	126
105	218
106	25
107	38
118	17
132	139
133	36
135	189
136	219
137	16
149	292
150	25
163	752
164	999
165	120
166	12
194	7
238	25
270	11
