Mass spectrum: 1-OCTADECENYL-2,3-DI-TRIMETHYLSILYL GLYCEROL; EI-MS
Formula: C27H58O3Si2
Exact mass: 486.39245
Instrument type: EI-MS
m/z	relative intensity
57	14
69	46
73	104
82	21
83	73
96	23
97	82
98	1
101	29
105	1
109	29
110	16
111	5
118	20
119	17
131	118
132	29
133	95
134	1
135	18
139	1
148	45
149	48
163	12
175	20
177	30
189	1
204	78
205	999
206	193
207	9
208	12
219	18
221	13
248	1
275	10
293	57
294	13
382	2
383	14
396	14
471	35
472	1
486	66
487	28
488	10
