Mass spectrum: CINNAMALDEHYDE; EI-MS
Formula: C9H8O
Exact mass: 132.05751
Instrument type: EI-MS
m/z	relative intensity
27	36
28	37
29	23
31	65
39	39
44	32
45	36
50	77
51	264
52	58
55	13
62	14
63	39
74	31
75	30
76	39
77	348
78	213
91	17
102	63
103	464
104	153
105	26
131	999
132	507
133	45
