Mass spectrum: N-PIPEROYL-N,N-DIPROPYLAMINE; EI-MS
Name: 5-(3,4-METHYLENEDIOXYPHENYL)-N,N-DIPROPYL-2,4-PENTADIENAMIDE
Formula: C18H23NO3
Exact mass: 301.16779
Instrument type: EI-MS
m/z	relative intensity
43	13
72	12
86	12
100	7
115	77
116	29
122	11
128	2
131	14
135	51
138	66
143	7
144	37
148	34
152	17
153	3
159	19
161	18
166	10
171	6
172	67
173	136
174	149
175	2
187	36
200	43
201	999
202	17
203	22
216	25
258	15
259	2
272	56
273	15
300	20
301	51
302	107
303	11
