Mass spectrum: 3-METHYL-1-BUTANOL; EI-MS
Name: ISO-AMYL ALCOHOL
Formula: C5H12O
Exact mass: 88.08882
Instrument type: EI-MS
m/z	relative intensity
15	45
19	32
26	35
27	39
28	142
29	633
30	16
31	48
32	20
33	13
38	24
39	30
40	50
41	999
42	765
43	58
44	30
45	175
46	61
47	1
50	18
51	21
53	38
54	2
55	901
56	543
57	651
58	3
59	25
60	12
69	49
70	78
71	59
