Mass spectrum: DODECYL OCTADECANOATE; EI-MS
Name: LAURYL STEARATE
Formula: C30H60O2
Exact mass: 452.45933
Instrument type: EI-MS
m/z	relative intensity
41	375
42	130
43	927
53	18
54	43
55	569
56	238
57	999
58	49
59	12
60	159
61	163
67	78
68	134
69	367
70	246
71	499
72	27
73	231
74	20
81	42
82	154
83	417
84	222
85	359
86	14
87	24
95	54
96	96
97	356
98	149
99	64
100	15
101	38
109	30
110	44
111	195
112	86
113	36
114	19
115	19
116	34
121	10
123	12
124	20
125	103
126	45
127	17
129	85
135	10
138	13
139	29
140	150
141	22
168	417
169	65
171	15
177	12
185	43
199	12
213	47
227	10
229	28
241	52
264	14
265	15
267	109
268	27
282	10
283	15
284	139
285	811
286	146
287	22
452	121
453	37
