Mass spectrum: 5-HEXYL-5-METHYLOXOLAN-2-ONE; EI-MS
Formula: C11H20O2
Exact mass: 184.14633
Instrument type: EI-MS
m/z	relative intensity
27	75
28	159
29	68
32	3
39	50
41	175
42	30
43	39
53	35
54	29
55	103
56	9
57	31
58	30
67	32
68	4
69	64
70	66
71	91
81	4
83	30
85	25
95	22
96	2
98	26
99	999
100	82
109	3
110	28
111	20
114	35
129	5
151	29
169	42
170	21
184	30
