Mass spectrum: 3-NONYL ACETATE; EI-MS
Name: 1-ETHYLHEPTYL ACETATE
Formula: C11H22O2
Exact mass: 186.16198
Instrument type: EI-MS
m/z	relative intensity
15	12
27	62
29	93
39	32
41	124
42	49
43	999
44	33
55	110
56	63
57	43
58	33
59	23
61	14
69	44
70	63
71	21
73	13
83	19
84	29
85	12
97	113
98	17
101	135
126	52
