Mass spectrum: 4-ACETYL-4-METHYL-1-TRIMETHYLSILYLMETHYLCYCLOHEXENE; EI-MS
Formula: C13H24OSi
Exact mass: 224.15964
Instrument type: EI-MS
m/z	relative intensity
41	37
43	118
44	23
45	114
59	78
67	18
72	14
73	999
74	86
75	116
77	20
79	20
91	42
93	16
97	14
107	21
119	22
125	15
134	23
151	21
157	50
158	72
159	23
168	15
209	29
224	62
225	12
