Mass spectrum: 4-METHYLCYCLOHEXENE; EI-MS
Formula: C7H12
Exact mass: 96.0939
Instrument type: EI-MS
m/z	relative intensity
39	53
53	52
54	573
55	289
56	2
69	13
77	6
79	4
81	999
82	65
95	56
96	47
97	33
