Mass spectrum: ETHYL(TRIMETHYLSILYL)KETENE; EI-MS
Formula: C7H14OSi
Exact mass: 142.08139
Instrument type: EI-MS
m/z	relative intensity
32	115
43	27
55	102
56	19
57	41
58	22
69	41
70	28
71	31
72	69
82	61
83	46
84	25
93	24
97	131
98	35
111	317
112	23
126	999
127	115
142	37
