Mass spectrum: ETHYL PARA-METHOXYBENZOATE; EI-MS
Name: PARA-METHOXYBENZOIC ACID ETHYL ESTER
Formula: C10H12O3
Exact mass: 180.07864
Instrument type: EI-MS
m/z	relative intensity
15	8
27	35
28	16
29	39
38	21
39	19
50	37
51	24
53	14
62	13
63	71
64	102
65	24
74	12
75	13
76	25
77	201
78	19
79	16
92	134
107	140
108	19
135	999
136	109
152	194
153	15
165	19
166	15
180	170
181	17
