Mass spectrum: N-ACETYL-GLYCYL-VALYL-ALANINE METHYLESTER; EI-MS
Formula: C13H23N3O5
Exact mass: 301.16377
Instrument type: EI-MS
m/z	relative intensity
27	16
28	31
29	16
30	19
31	13
41	24
42	21
43	9
44	119
45	12
55	69
56	3
57	17
58	13
59	13
69	2
70	26
71	21
72	999
73	7
83	14
85	14
98	14
99	2
100	72
102	13
104	23
113	1
159	11
169	26
171	93
172	5
200	33
