Mass spectrum: 1,5-PENTANEDIOL; EI-MS
Formula: C5H12O2
Exact mass: 104.08373
Instrument type: EI-MS
m/z	relative intensity
27	46
28	89
29	171
30	26
31	501
33	21
39	26
40	32
41	495
42	94
43	280
44	471
45	144
46	10
53	42
54	24
55	493
56	999
57	679
58	109
61	43
62	11
66	11
67	274
68	394
69	38
71	37
73	113
74	198
75	19
86	18
