Mass spectrum: BETA-ETHOXYPROPIONIC ACID METHYL ESTER; EI-MS
Formula: C6H12O3
Exact mass: 132.07864
Instrument type: EI-MS
m/z	relative intensity
41	99
42	127
44	305
55	23
56	54
57	268
58	44
59	999
60	109
61	216
71	577
72	21
87	305
88	673
89	41
101	36
103	549
104	37
