Mass spectrum: 2-METHYLPROPYL PHENYLACETATE; EI-MS
Name: ISOBUTYL PHENYLACETATE
Formula: C12H16O2
Exact mass: 192.11503
Instrument type: EI-MS
m/z	relative intensity
27	76
29	233
38	12
39	141
41	377
42	17
43	62
50	13
51	33
52	11
55	17
56	49
57	586
58	21
62	11
63	49
64	15
65	180
71	11
89	53
90	40
91	999
92	251
93	15
119	67
136	259
137	89
192	15
