Mass spectrum: PINANE (CIS-2,3-D2); EI-MS
Name: 2,6,6-TRIMETHYLBICYCLO(3.1.1)HEPTANE (CIS-2,3-D2)
Formula: C10H18
Exact mass: 138.14085
Instrument type: EI-MS
m/z	relative intensity
15	10
26	6
27	182
28	97
29	126
30	85
31	17
38	6
39	243
40	122
41	607
42	305
43	188
44	60
45	9
50	12
51	36
52	36
53	118
54	99
55	421
56	620
57	199
58	26
59	6
63	7
64	6
65	28
66	32
67	176
68	378
69	829
70	335
71	122
72	26
77	41
78	50
79	54
80	80
81	209
82	422
83	958
84	963
85	54
86	8
91	16
92	36
93	40
94	132
95	91
96	361
97	999
98	267
99	54
108	7
109	14
110	65
111	64
112	30
122	15
124	28
125	279
126	30
137	18
139	7
140	154
141	22
