Mass spectrum: 3ALPHA,4ALPHA,5BETA-TRI(TRIMETHYLSILYLOXY)-1-CYCLOHEXENE-1-CARBOXYLIC ACID TRIMETHYLSILYL ESTER; EI-MS
Name: TRIMETHYLSILYL 3ALPHA,4ALPHA,5BETA-TRI(TRIMETHYLSILOXY)-1-CYCLOHEXENE-1-CARBOXYLATE
Formula: C19H42O5Si4
Exact mass: 462.21093
Instrument type: EI-MS
m/z	relative intensity
45	383
73	150
74	335
75	32
103	68
133	171
147	999
148	15
149	95
189	246
191	109
193	8
204	75
205	739
206	321
254	14
255	226
282	95
283	61
357	13
372	116
373	47
