Mass spectrum: 2-PENTANONE; EI-MS
Name: METHYL PROPYL KETONE
Formula: C5H10O
Exact mass: 86.07316
Instrument type: EI-MS
m/z	relative intensity
14	12
15	15
26	18
27	13
28	17
29	21
38	14
39	8
40	10
41	134
42	44
43	999
44	24
58	91
71	110
86	18
87	13
