Mass spectrum: DIMETHYL SULFOXIDE; EI-MS
Formula: C2H6OS
Exact mass: 78.01394
Instrument type: EI-MS
m/z	relative intensity
13	11
14	35
15	200
27	66
29	103
31	79
32	18
33	36
34	38
35	53
44	20
45	412
46	148
47	99
48	108
49	14
58	11
61	156
62	45
63	999
64	19
65	39
78	715
79	20
80	29
