Mass spectrum: BUTANE (2-D1); EI-MS
Formula: C4H10
Exact mass: 58.07825
Instrument type: EI-MS
m/z	relative intensity
15	20
26	62
27	422
28	48
29	542
30	363
37	15
38	3
39	174
40	91
41	330
42	38
43	951
44	999
45	29
50	2
51	10
54	12
56	22
57	6
59	287
60	12
