Mass spectrum: PHENYLTRIETHOXYSILANE; EI-MS
Formula: C12H20O3Si
Exact mass: 240.11817
Instrument type: EI-MS
m/z	relative intensity
45	176
77	136
79	122
91	150
105	117
118	220
119	300
121	106
123	181
135	366
139	338
147	999
151	247
162	659
163	165
181	166
195	671
196	136
240	314
