Mass spectrum: 1,4,7-TRIMETHYL-3,6-DIOXAOCTANE-1,8-DIOL; EI-MS
Name: TRIPROPYLENE GLYCOL
Formula: C9H20O4
Exact mass: 192.13616
Instrument type: EI-MS
m/z	relative intensity
15	11
27	20
28	13
29	29
31	150
39	16
41	116
42	58
43	57
45	154
57	52
58	43
59	999
60	32
72	10
73	11
103	95
104	11
117	46
