Mass spectrum: BETA-(2-PYRIDYL)-TRANS-ACRYLIC ACID; EI-MS
Name: 3-(2-PYRIDYL)-TRANS-PROPENOIC ACID
Formula: C8H7NO2
Exact mass: 149.04768
Instrument type: EI-MS
m/z	relative intensity
50	20
51	125
77	58
78	7
79	105
104	962
105	384
106	5
148	27
149	999
150	104
151	10
