Mass spectrum: DIETHYL PHTHALATE; EI-MS
Name: PHTHALIC ACID DIETHYL ESTER
Formula: C12H14O4
Exact mass: 222.08921
Instrument type: EI-MS
m/z	relative intensity
105	22
122	24
132	15
149	999
150	163
151	19
164	13
176	392
177	893
178	219
179	19
194	36
195	19
221	40
222	375
223	66
224	9
