Mass spectrum: 2,3-BUTANEDIOL; EI-MS
Formula: C4H10O2
Exact mass: 90.06808
Instrument type: EI-MS
m/z	relative intensity
15	50
17	26
18	110
19	60
26	19
27	111
29	103
31	33
39	14
41	14
42	26
43	155
44	51
45	999
46	35
47	49
55	19
57	89
75	25
90	10
