Mass spectrum: (Z,Z)-3,6-DODECADIEN-1-OL; EI-MS
Formula: C12H22O
Exact mass: 182.16707
Instrument type: EI-MS
m/z	relative intensity
43	69
44	214
45	34
46	6
54	234
55	513
56	106
57	15
58	28
59	17
66	95
67	87
68	484
69	254
70	272
71	10
72	23
73	25
77	37
78	4
79	999
80	499
81	590
82	31
83	225
84	187
85	31
86	2
87	31
88	18
89	39
91	15
92	43
93	741
94	361
95	37
96	358
97	321
98	305
99	3
100	27
103	21
105	55
106	1
107	410
108	141
109	213
110	13
111	166
112	166
113	16
114	4
117	16
119	10
120	27
121	36
122	93
123	60
124	19
125	5
126	27
127	10
133	40
135	19
136	70
137	22
138	169
139	5
149	29
150	16
151	32
153	2
162	19
163	11
164	119
165	1
182	33
