Mass spectrum: GLYCINE; EI-MS
Formula: C2H5NO2
Exact mass: 75.03203
Instrument type: EI-MS
m/z	relative intensity
18	18
27	36
28	244
29	44
30	999
31	19
42	11
44	23
45	31
75	54
