Mass spectrum: DIBUTYL FUMARATE; EI-MS
Formula: C12H20O4
Exact mass: 228.13616
Instrument type: EI-MS
m/z	relative intensity
43	99
45	26
53	195
54	235
55	895
56	774
57	27
71	7
72	24
74	23
81	90
82	14
97	23
98	23
99	548
100	19
109	34
117	999
118	55
126	3
127	128
128	21
154	84
155	98
156	108
157	20
173	926
174	7
229	55
