Mass spectrum: 1-ACETYL-3-(2-PYRIDYL)-2-PYRAZOLINE; EI-MS
Formula: C10H11N3O
Exact mass: 189.09021
Instrument type: EI-MS
m/z	relative intensity
78	252
79	137
91	61
93	4
104	128
105	63
117	252
118	42
119	56
146	999
147	540
148	4
188	38
189	213
