Mass spectrum: DODECANEDIOIC ACID DIMETHYL ESTER; EI-MS
Formula: C14H26O4
Exact mass: 258.18311
Instrument type: EI-MS
m/z	relative intensity
40	68
43	206
57	25
69	259
74	465
83	133
84	498
85	70
87	109
97	160
98	999
111	138
112	241
135	126
141	17
153	280
185	286
227	171
