Mass spectrum: 6-METHYL-3,4-(5'-CHLOROBENZO)-2-OXABICYCLO(4.1.0)HEPT-3-EN-5-ONE; EI-MS
Formula: C11H9ClO2
Exact mass: 208.02911
Instrument type: EI-MS
m/z	relative intensity
50	230
51	210
52	30
53	380
54	40
55	45
56	15
57	10
58	60
59	15
61	5
62	110
63	540
64	95
65	80
66	30
67	20
68	10
69	110
71	30
72	35
73	85
74	200
75	490
76	110
77	100
78	15
79	10
84	20
85	40
86	45
87	45
88	10
89	80
90	10
91	200
92	25
93	10
96	10
97	40
98	90
99	125
100	40
101	95
102	90
103	20
104	10
105	60
106	10
107	10
109	20
110	340
111	70
112	140
114	40
115	225
116	50
117	105
118	10
119	20
124	10
125	20
126	160
127	25
128	70
129	15
130	25
131	15
132	11
134	10
135	10
136	20
137	40
138	310
139	120
140	105
141	30
143	10
144	50
145	245
146	30
147	10
149	20
151	10
154	60
155	145
156	45
157	35
158	10
165	450
166	35
167	165
168	450
169	45
170	125
171	20
172	10
173	50
179	310
180	50
181	145
182	35
183	20
193	80
194	20
195	30
207	40
208	999
209	125
210	340
211	30
