Mass spectrum: BUTYL SALICYLATE; EI-MS
Formula: C11H14O3
Exact mass: 194.09429
Instrument type: EI-MS
m/z	relative intensity
27	75
28	18
29	147
38	2
39	176
40	11
41	114
50	1
51	11
53	28
55	19
56	2
57	39
62	13
63	52
64	6
65	164
66	11
81	16
92	22
93	78
120	999
121	274
123	3
138	241
139	24
194	183
195	24
