Mass spectrum: CYCLOHEXANOL; EI-MS
Name: CYCLOHEXYL ALCOHOL
Formula: C6H12O
Exact mass: 100.08882
Instrument type: EI-MS
m/z	relative intensity
27	89
28	32
29	99
31	48
39	100
40	16
41	207
42	73
43	101
44	223
45	32
51	13
53	32
54	104
55	94
56	130
57	999
58	79
67	249
68	15
69	18
70	12
71	131
72	68
79	13
81	45
82	470
83	43
99	11
100	24
