Mass spectrum: PARA-ISOPROPENYLPHENYLTRIMETHYLSILANE; EI-MS
Formula: C12H18Si
Exact mass: 190.11778
Instrument type: EI-MS
m/z	relative intensity
41	22
43	121
45	39
53	34
58	36
59	74
73	41
88	15
91	26
93	21
105	39
107	16
115	33
117	20
119	36
121	24
129	15
131	39
133	20
135	24
143	19
145	51
159	38
161	114
162	16
175	999
176	198
177	57
190	161
191	33
