Mass spectrum: PARA-CRESOL; EI-MS
Formula: C7H8O
Exact mass: 108.05751
Instrument type: EI-MS
m/z	relative intensity
27	57
38	19
39	85
41	10
50	50
51	89
52	41
53	82
54	37
55	24
62	13
63	34
65	20
77	208
78	45
79	164
80	67
81	12
89	16
90	81
91	39
107	999
108	876
109	61
