Mass spectrum: 3-METHOXYBUTYL ACETATE; EI-MS
Formula: C7H14O3
Exact mass: 146.09429
Instrument type: EI-MS
m/z	relative intensity
15	72
27	38
28	21
29	77
31	75
33	15
39	25
41	68
42	22
43	413
44	12
45	29
55	87
56	31
57	11
58	36
59	999
60	34
61	23
71	223
72	25
73	12
85	21
86	98
87	13
116	12
