Mass spectrum: HEXANAL DI-CIS-3-HEXENYL ACETAL; EI-MS
Formula: C18H34O2
Exact mass: 282.25588
Instrument type: EI-MS
m/z	relative intensity
27	55
29	62
31	24
39	59
41	317
42	35
43	50
53	33
54	29
55	608
56	41
57	32
67	115
68	11
69	28
70	12
71	14
81	14
82	89
83	999
84	65
101	19
113	12
125	39
183	103
184	11
