Mass spectrum: 3-PHENYLPROPYL ISOVALERATE; EI-MS
Formula: C14H20O2
Exact mass: 220.14633
Instrument type: EI-MS
m/z	relative intensity
27	67
29	87
39	89
41	203
42	30
43	76
51	30
52	10
55	14
57	207
63	15
65	78
77	54
78	30
79	21
85	76
89	13
91	413
92	44
103	30
104	19
105	24
115	20
116	20
117	491
118	999
119	120
