Mass spectrum: N-(3,3,5-TRIMETHYLCYCLOHEXYL)-2-METHYLCYCLOHEXANIMINE; EI-MS
Formula: C16H29N
Exact mass: 235.23
Instrument type: EI-MS
m/z	relative intensity
43	112
53	82
55	364
57	152
67	170
68	105
69	999
70	83
79	81
81	118
83	337
95	90
107	81
109	113
110	224
112	404
123	105
124	83
125	196
160	124
174	94
178	122
218	132
220	269
233	96
235	190
