Mass spectrum: MEPHENYTOIN; EI-MS
Formula: C12H14N2O2
Exact mass: 218.10553
Instrument type: EI-MS
m/z	relative intensity
50	29
51	99
52	19
53	0
54	14
55	4
56	39
75	1
76	39
77	229
78	29
89	1
90	4
91	44
102	9
103	6
104	860
105	89
116	39
117	1
118	34
119	19
132	54
133	1
160	14
161	9
189	999
190	12
191	9
203	19
218	54
219	9
