Mass spectrum: 2-ETHYLHEXANAL; EI-MS
Formula: C8H16O
Exact mass: 128.12012
Instrument type: EI-MS
m/z	relative intensity
15	14
26	13
27	259
29	301
31	11
39	177
40	12
41	488
42	70
43	413
44	25
51	11
53	30
54	29
55	144
56	34
57	914
58	42
67	15
69	17
70	10
71	42
72	999
73	39
82	20
85	22
