Mass spectrum: METHYLCYCLOPENTANE; EI-MS
Formula: C6H12
Exact mass: 84.0939
Instrument type: EI-MS
m/z	relative intensity
15	10
17	19
18	87
26	1
27	125
28	57
29	75
32	1
37	6
38	14
39	156
40	4
41	514
42	240
43	105
50	1
51	18
52	7
53	34
54	3
55	241
56	999
57	48
65	1
66	6
67	26
68	41
69	37
70	22
83	10
84	255
85	18
