Mass spectrum: (4S,5S)-2-(2-CHLOROETHYL)-4,5-BIS(METHOXYMETHYL)-1,3-DIOXOLANE; EI-MS
Formula: C9H17ClO4
Exact mass: 224.08154
Instrument type: EI-MS
m/z	relative intensity
38	13
39	33
40	18
41	8
42	20
43	155
44	36
45	32
53	29
54	20
55	245
56	10
57	73
58	209
59	573
60	3
67	18
68	33
69	94
70	7
71	300
72	65
73	44
75	7
81	74
83	145
84	209
85	31
86	36
87	999
88	29
95	2
99	25
100	36
101	27
102	2
103	18
107	44
109	22
111	2
113	18
115	827
116	64
121	3
128	25
129	58
143	464
144	5
161	564
162	31
179	64
181	3
187	27
