Mass spectrum: ACETIC ACID HEPTYL ESTER; EI-MS
Name: HEPTYL ACETATE
Formula: C9H18O2
Exact mass: 158.13068
Instrument type: EI-MS
m/z	relative intensity
15	33
27	84
28	36
29	121
31	17
39	57
41	265
42	185
43	999
44	31
54	33
55	298
56	461
57	137
58	34
61	212
68	46
69	193
70	355
71	29
73	68
83	36
97	15
98	91
101	12
116	10
