Mass spectrum: BENZYL BENZOATE; EI-MS
Formula: C14H12O2
Exact mass: 212.08373
Instrument type: EI-MS
m/z	relative intensity
27	17
39	80
41	14
50	68
51	223
52	20
63	29
64	10
65	137
74	13
75	11
76	17
77	380
78	33
79	56
89	52
90	79
91	553
92	33
105	999
106	81
107	67
167	43
194	35
212	214
213	28
