Mass spectrum: 7-CHLORO-4-OXO-4H-PYRIDO(1,2-A)PYRIMIDINE-3-ACETIC ACID ETHYL ESTER; EI-MS
Formula: C12H11ClN2O3
Exact mass: 266.04582
Instrument type: EI-MS
m/z	relative intensity
39	24
50	11
55	98
76	7
77	15
78	17
825	13
965	1
112	185
113	33
114	57
139	6
141	17
165	65
166	16
167	2
193	999
194	130
195	326
196	4
221	43
233	13
266	261
267	4
268	80
269	11
