Mass spectrum: 3-METHYLENE-5-PHENYL-5-TRIMETHYLSILOXY-1-PENTENE; EI-MS
Formula: C15H22OSi
Exact mass: 246.14399
Instrument type: EI-MS
m/z	relative intensity
43	129
45	81
47	28
53	23
58	45
59	36
73	905
74	75
75	168
76	19
77	39
91	25
104	19
105	21
117	27
119	19
125	39
127	19
128	21
163	23
179	999
180	163
181	47
231	27
246	4
