Mass spectrum: 1,2-DIMETHOXYETHANE; EI-MS
Formula: C4H10O2
Exact mass: 90.06808
Instrument type: EI-MS
m/z	relative intensity
15	79
27	14
28	45
29	102
31	41
43	26
44	11
45	999
46	21
58	54
59	25
60	150
90	61
