Mass spectrum: 2-ETHENYL-2-METHYL-5-(1-METHYL-1-HYDROXY)ETHYLTETRAHYDROFURAN; EI-MS
Name: LINALOL OXIDE
Formula: C10H18O2
Exact mass: 170.13068
Instrument type: EI-MS
m/z	relative intensity
27	90
29	75
31	97
39	9
41	257
42	39
43	598
44	3
45	36
53	77
54	18
55	40
56	42
57	80
58	23
59	999
60	51
67	288
68	447
69	25
70	127
71	195
72	124
73	5
77	39
79	111
81	246
82	7
83	195
84	76
85	143
91	4
93	431
94	642
95	270
96	2
97	124
98	14
102	79
109	4
110	26
111	505
112	106
113	16
114	14
125	22
137	71
139	2
143	39
155	71
