Mass spectrum: 7-METHOXYISOFLAVAN-4BETA-OL; EI-MS
Name: 7-METHOXY-3-PHENYLCHROMAN-4(R)-OL
Formula: C16H16O3
Exact mass: 256.10994
Instrument type: EI-MS
m/z	relative intensity
152	33
160	30
161	560
162	6
167	7
168	20
189	7
193	1
194	7
195	13
207	67
208	3
209	10
210	37
211	7
223	10
224	20
237	267
238	999
239	18
240	20
