Mass spectrum: 4-TERT-BUTYLBENZOIC ACID; EI-MS
Formula: C11H14O2
Exact mass: 178.09938
Instrument type: EI-MS
m/z	relative intensity
27	85
28	14
29	88
38	17
39	247
40	25
41	554
42	26
43	20
45	70
50	94
51	203
52	43
53	51
55	56
56	18
57	70
58	61
59	54
62	23
63	83
64	23
65	133
66	24
67	17
68	13
69	75
70	12
71	29
72	89
73	47
74	35
75	58
76	52
77	284
78	65
79	218
80	23
81	49
82	15
83	20
84	11
85	12
87	11
89	46
90	38
91	592
92	58
93	25
95	19
96	11
97	17
98	10
101	22
102	39
103	80
104	15
105	74
107	84
109	10
111	10
115	113
116	31
117	84
118	47
119	42
120	11
121	10
123	30
131	16
133	17
135	394
136	45
137	16
145	33
147	17
149	10
161	17
162	12
163	999
164	143
165	14
178	207
179	28
