Mass spectrum: 4-METHOXYFURO(3',2':6,7)COUMARIN; EI-MS
Formula: C12H8O4
Exact mass: 216.04226
Instrument type: EI-MS
m/z	relative intensity
89	90
117	50
145	170
158	160
173	190
188	400
216	999
217	80
