Mass spectrum: 2-CHLORO-3-HYDROXY-3-METHYLBUTYL ACETATE; EI-MS
Formula: C7H13ClO3
Exact mass: 180.05532
Instrument type: EI-MS
m/z	relative intensity
27	31
29	19
31	78
39	3
41	66
42	25
43	999
44	3
55	33
58	194
59	905
60	3
61	31
62	128
64	44
85	8
86	39
87	25
90	69
92	2
101	53
103	81
105	183
107	6
120	27
122	16
123	16
