Mass spectrum: 10-UNDECENYL ACETATE; EI-MS
Formula: C13H24O2
Exact mass: 212.17763
Instrument type: EI-MS
m/z	relative intensity
15	38
27	96
28	37
29	151
31	15
39	127
40	22
41	483
42	119
43	999
44	25
53	49
54	386
55	524
56	68
57	37
58	10
61	102
66	34
67	346
68	385
69	286
70	32
71	14
73	26
79	16
80	15
81	261
82	331
83	72
95	172
96	165
97	33
109	65
110	74
111	13
123	28
124	30
152	17
