Mass spectrum: N,N,N',N'-TETRAMETHYL-1,3-DIAMINOBUTANE; EI-MS
Formula: C8H20N2
Exact mass: 144.16265
Instrument type: EI-MS
m/z	relative intensity
42	34
43	12
44	77
45	3
55	12
56	57
57	64
58	78
59	35
70	60
71	108
72	999
73	58
84	573
85	43
86	5
98	78
99	618
100	51
129	1
144	79
145	11
