Mass spectrum: CYCLOPENTANOL; EI-MS
Formula: C5H10O
Exact mass: 86.07316
Instrument type: EI-MS
m/z	relative intensity
15	24
26	24
27	113
28	55
29	111
30	32
31	56
38	16
39	115
40	40
41	157
42	44
43	87
44	348
45	53
51	10
53	21
55	26
56	18
57	999
58	138
67	59
68	69
69	21
71	39
85	10
86	129
