Mass spectrum: 4'-HYDROXYACETOPHENONE; EI-MS
Formula: C8H8O2
Exact mass: 136.05243
Instrument type: EI-MS
m/z	relative intensity
15	15
18	2
26	5
27	9
28	7
29	5
37	7
38	19
39	90
42	10
43	57
50	16
51	17
52	6
53	19
54	3
55	5
60	4
61	8
62	18
63	39
64	19
65	145
66	14
67	3
74	8
75	6
76	3
77	18
78	4
79	6
92	17
93	208
94	20
107	11
120	6
121	999
122	81
123	7
136	454
137	45
138	4
