Mass spectrum: PHENYLETHYL ISOPENTYL ETHER; EI-MS
Name: ISOPENTYL PHENETHYL ETHER
Formula: C13H20O
Exact mass: 192.15142
Instrument type: EI-MS
m/z	relative intensity
27	101
28	103
29	85
31	13
39	85
41	148
42	30
43	999
44	32
45	79
50	13
51	54
52	15
53	19
55	81
63	18
65	75
69	477
70	80
71	685
72	35
77	129
78	82
79	90
89	15
91	281
92	98
101	187
102	19
103	69
104	61
105	363
106	247
107	18
122	49
192	61
