Mass spectrum: L-MENTHYL 3-OXOHEXANOATE; EI-MS
Formula: C16H28O3
Exact mass: 268.20384
Instrument type: EI-MS
m/z	relative intensity
40	40
41	700
42	130
43	999
44	30
45	20
51	10
52	10
53	80
54	80
55	580
56	90
57	350
58	60
59	20
60	10
65	30
66	20
67	190
68	90
69	410
70	60
71	720
72	30
74	10
77	30
78	10
79	60
80	80
81	650
82	260
83	700
84	80
85	30
86	20
87	20
91	20
94	30
95	680
96	200
97	140
98	20
99	10
102	20
105	10
107	10
109	80
110	50
111	30
112	30
113	160
114	10
115	10
121	10
122	10
123	300
124	30
125	10
127	10
128	10
129	30
130	40
131	150
132	20
137	40
138	770
139	240
140	20
141	20
145	60
146	10
149	10
150	10
151	10
152	10
153	10
154	10
155	50
156	10
157	10
170	10
171	10
267	4
268	9
269	1
