Mass spectrum: TETRAETHYL PYROPHOSPHATE; EI-MS
Formula: C8H20O7P2
Exact mass: 290.06843
Instrument type: EI-MS
m/z	relative intensity
290	150
263	999
235	930
207	600
182	150
179	730
162	630
161	940
155	810
127	730
109	420
99	930
82	440
81	730
