Mass spectrum: METHACRYLIC ACID METHYL ESTER; EI-MS
Name: METHYL METHACRYLATE
Formula: C5H8O2
Exact mass: 100.05243
Instrument type: EI-MS
m/z	relative intensity
15	109
26	12
27	18
28	22
29	27
31	11
33	9
37	17
38	37
39	310
40	81
41	999
42	48
43	23
45	17
53	15
54	14
55	72
56	34
57	11
58	12
59	85
68	12
69	745
70	35
82	29
85	54
99	111
100	249
101	18
