Mass spectrum: 2-BUTYN-1-OL; EI-MS
Formula: C4H6O
Exact mass: 70.04186
Instrument type: EI-MS
m/z	relative intensity
26	42
27	283
28	269
29	12
30	23
31	69
32	45
34	2
36	16
37	74
38	98
39	41
40	64
41	228
42	389
43	9
44	35
49	34
50	122
51	15
52	78
53	164
54	19
55	9
66	11
67	27
68	40
69	999
70	143
71	20
75	12
