Mass spectrum: 2,5-PIPERAZINEDIONE; EI-MS
Name: CYCLO(GLYCYLGLYCYL)
Formula: C4H6N2O2
Exact mass: 114.04293
Instrument type: EI-MS
m/z	relative intensity
28	99
29	227
30	999
31	2
42	172
43	443
44	16
56	1
57	13
58	48
59	28
71	59
72	25
86	98
114	81
115	52
