Mass spectrum: 2-METHYL-2-BUTANOL; EI-MS
Formula: C5H12O
Exact mass: 88.08882
Instrument type: EI-MS
m/z	relative intensity
27	20
29	47
31	148
39	15
41	91
42	12
43	195
45	88
55	278
56	14
57	13
58	13
59	999
60	36
70	12
71	135
73	702
74	32
87	2
88	0
