Mass spectrum: OCTACOSANE; EI-MS
Formula: C28H58
Exact mass: 394.45385
Instrument type: EI-MS
m/z	relative intensity
41	236
42	78
43	765
44	52
53	14
54	30
55	203
56	136
57	999
58	70
67	44
68	43
69	134
70	114
71	680
73	10
81	28
82	55
83	136
84	72
85	399
86	26
96	33
97	124
98	40
99	128
100	12
111	31
112	29
113	89
117	10
125	20
126	33
127	63
135	12
139	21
140	32
141	42
154	14
155	55
168	15
169	36
177	16
182	32
183	47
196	23
197	30
208	27
210	13
211	16
225	34
239	32
240	12
252	15
253	27
267	32
295	17
324	19
338	13
394	22
