Mass spectrum: 6,7-DIMETHYL-3',4'-METHYLENEDIOXYFLAVONOL; EI-MS
Name: 3-HYDROXY-6,7-DIMETHYL-2-(3,4-METHYLENEDIOXYPHENYL)-4H-CHROMEN-4-ONE
Formula: C18H14O5
Exact mass: 310.08412
Instrument type: EI-MS
m/z	relative intensity
63	25
65	44
76	26
77	4
91	78
119	35
120	34
126	4
140	96
149	152
162	40
224	4
253	24
281	32
282	62
309	28
310	999
311	247
312	23
