Mass spectrum: ALPHA-CYCLOPENTYL-ALPHA-PHENYLACETIC ACIDTRIMETHYLSILYL ESTER; EI-MS
Formula: C16H24O2Si
Exact mass: 276.15456
Instrument type: EI-MS
m/z	relative intensity
45	99
67	65
73	999
74	17
75	227
77	61
91	243
115	6
117	85
118	122
158	679
159	10
208	122
232	93
261	102
262	23
