Mass spectrum: BUTYL BENZOATE; EI-MS
Formula: C11H14O2
Exact mass: 178.09938
Instrument type: EI-MS
m/z	relative intensity
29	19
31	19
41	55
42	12
43	22
55	34
56	371
57	24
73	12
77	140
78	15
79	53
105	870
106	77
107	12
122	241
123	999
124	80
135	17
178	58
179	10
