Mass spectrum: 2-DIMETHYLAMINO-5-NITROPYRIMIDINE; EI-MS
Formula: C6H8N4O2
Exact mass: 168.06473
Instrument type: EI-MS
m/z	relative intensity
38	11
39	15
40	43
41	5
42	303
43	248
44	650
45	2
50	24
52	90
53	83
54	3
55	43
68	20
69	135
70	100
71	2
72	39
77	18
79	240
80	16
81	29
93	85
94	25
95	10
106	12
107	450
108	40
109	2
110	13
121	288
122	55
123	1
125	43
135	43
139	550
140	4
152	13
153	371
154	25
167	15
168	999
169	95
