Mass spectrum: 3(S)-CITRONELOL; EI-MS
Formula: C10H20O
Exact mass: 156.15142
Instrument type: EI-MS
m/z	relative intensity
31	218
39	251
41	999
42	111
43	220
45	35
51	24
52	14
53	140
54	56
55	656
56	445
57	155
65	27
66	15
67	552
68	298
69	818
70	167
71	253
72	15
77	20
79	37
80	4
81	457
82	496
83	141
84	24
85	34
86	25
91	11
93	13
94	17
95	351
96	79
97	13
99	13
109	138
110	53
111	16
112	15
123	197
124	21
138	96
139	13
156	70
