Mass spectrum: 3-ETHYL-3-METHYLGLUTARIC ACID DIMETHY ESTER; EI-MS
Formula: C10H18O4
Exact mass: 202.12051
Instrument type: EI-MS
m/z	relative intensity
39	125
41	346
42	57
43	14
51	19
53	86
54	57
55	40
56	19
59	76
61	38
64	2
67	67
68	115
69	836
70	6
71	19
74	96
75	28
79	2
81	96
83	76
84	19
85	11
86	38
87	432
88	38
93	3
94	38
95	76
96	163
97	86
98	76
99	48
101	28
104	4
109	192
110	57
111	86
112	2
113	201
114	19
117	48
121	4
127	76
128	192
129	999
130	9
131	19
139	38
140	19
141	51
142	182
143	96
155	48
170	11
171	394
172	38
173	19
186	48
