Mass spectrum: OCTYL CROTONATE; EI-MS
Name: OCTYL TRANS-2-BUTENOATE
Formula: C12H22O2
Exact mass: 198.16198
Instrument type: EI-MS
m/z	relative intensity
27	91
29	125
39	205
41	511
42	119
43	197
53	14
54	20
55	177
56	173
57	90
67	16
68	46
69	999
70	184
71	30
82	20
83	99
84	87
86	12
87	872
88	30
97	11
112	83
