Mass spectrum: PIPERONYLIC ACID; EI-MS
Formula: C8H6O4
Exact mass: 166.02661
Instrument type: EI-MS
m/z	relative intensity
28	22
29	39
39	13
40	10
52	28
53	16
57	54
63	50
64	16
65	118
66	20
69	10
79	10
80	10
81	38
82	17
91	43
93	10
109	10
119	106
120	20
121	110
122	12
137	10
149	253
150	42
165	670
166	999
167	105
168	10
