Mass spectrum: NAPHTHALENE; EI-MS
Formula: C10H8
Exact mass: 128.0626
Instrument type: EI-MS
m/z	relative intensity
27	10
38	12
39	33
50	55
51	108
52	14
61	14
62	28
63	75
64	51
74	50
75	52
76	34
77	36
78	29
86	12
87	19
98	15
101	27
102	106
126	56
127	118
128	999
129	120
