Mass spectrum: PHENYL PROPIONATE; EI-MS
Formula: C9H10O2
Exact mass: 150.06808
Instrument type: EI-MS
m/z	relative intensity
28	14
29	196
56	25
57	409
58	16
65	27
66	29
77	14
94	999
95	76
150	243
151	25
