Mass spectrum: 8-ETHYLQUINOLINE; EI-MS
Formula: C11H11N
Exact mass: 157.08915
Instrument type: EI-MS
m/z	relative intensity
27	11
29	45
39	23
41	17
50	10
51	10
63	86
75	62
76	11
77	104
89	42
102	69
103	42
115	52
116	35
128	34
129	345
130	86
141	28
142	135
156	999
157	690
158	86
