Mass spectrum: 8-AMINO-4'-METHOXYFLAVANONE; EI-MS
Name: 8-AMINO-2-(4-METHOXYPHENYL)CHROMAN-4-ONE
Formula: C16H15NO3
Exact mass: 269.10519
Instrument type: EI-MS
m/z	relative intensity
39	14
51	32
52	78
53	2
65	29
77	19
78	48
79	23
91	58
107	100
119	43
134	14
135	999
136	108
149	78
269	33
270	45
