Mass spectrum: 1,1-PENTAMETHYLENEHYDRAZINE; EI-MS
Name: 1-AMINOPIPERIDINE
Formula: C5H12N2
Exact mass: 100.10005
Instrument type: EI-MS
m/z	relative intensity
26	21
27	138
28	46
29	10
30	79
31	25
39	95
40	2
41	159
42	192
43	159
44	69
45	133
53	21
54	41
55	22
56	69
57	85
58	110
59	12
67	12
68	10
69	12
70	2
71	44
72	23
82	39
83	2
84	77
85	41
98	14
99	999
100	720
101	59
