Mass spectrum: METHYL ACETYLSALICYLATE; EI-MS
Name: METHYL 2-ACETHOXYBENZOATE
Formula: C10H10O4
Exact mass: 194.05791
Instrument type: EI-MS
m/z	relative intensity
15	238
27	18
29	41
37	21
38	77
39	124
41	26
42	42
43	749
44	17
50	41
51	27
52	24
53	42
59	22
61	11
62	38
63	171
64	158
65	129
66	12
74	12
76	17
77	43
92	451
93	71
95	35
120	999
121	323
122	28
152	737
153	74
163	55
