Mass spectrum: ACRIDINE (1,2,3,4,5,6,7,8,9-D9); EI-MS
Formula: C13H9N
Exact mass: 179.0735
Instrument type: EI-MS
m/z	relative intensity
40	14
42	35
52	45
54	37
64	19
66	61
76	25
78	47
79	25
80	49
82	12
88	9
90	13
93	99
102	10
106	13
118	14
130	14
132	38
156	28
157	14
158	98
159	26
160	90
161	13
184	44
185	39
186	199
187	175
188	999
189	144
190	11
