Mass spectrum: 8-METHOXY-2-PHENETHYLCHROMONE; EI-MS
Name: 8-METHOXY-2-PHENETHYL-4H-CHROMEN-4-ONE
Formula: C18H16O3
Exact mass: 280.10994
Instrument type: EI-MS
m/z	relative intensity
56	19
91	999
92	77
105	27
122	19
150	17
151	28
161	20
279	10
280	755
281	150
282	19
