Mass spectrum: METHYL ACETO ACETATE; EI-MS
Formula: C5H8O3
Exact mass: 116.04734
Instrument type: EI-MS
m/z	relative intensity
14	18
15	131
26	23
27	46
28	39
29	72
31	99
32	59
39	18
41	37
42	112
43	999
44	47
57	21
58	20
59	93
69	137
74	60
84	92
85	72
88	32
101	28
116	36
