Mass spectrum: (E)-3,7-DIMETHYL-2,6-OCTADIENAL; EI-MS
Name: GERANIAL
Formula: C10H16O
Exact mass: 152.12012
Instrument type: EI-MS
m/z	relative intensity
28	29
41	445
43	18
55	2
56	19
59	44
67	33
68	1
69	999
70	51
80	12
81	5
82	42
83	56
84	300
94	18
95	41
108	11
109	84
110	2
119	20
123	55
134	13
137	5
152	79
