Mass spectrum: 1-HYDROXY-2-PROPANONE; EI-MS
Formula: C3H6O2
Exact mass: 74.03678
Instrument type: EI-MS
m/z	relative intensity
14	31
15	149
26	21
27	42
28	11
29	135
30	16
31	225
41	11
42	69
43	999
44	20
45	21
74	74
