Mass spectrum: SULFANILAMIDE; EI-MS
Formula: C6H8N2O2S
Exact mass: 172.03065
Instrument type: EI-MS
m/z	relative intensity
15	6
27	18
28	114
32	20
38	15
39	186
40	13
41	56
42	25
43	10
44	10
45	6
46	7
48	10
50	10
51	16
52	54
53	59
54	47
55	5
62	8
63	73
64	111
65	708
66	100
67	9
75	7
78	9
79	10
80	160
81	23
90	25
91	71
92	819
93	71
106	6
107	82
108	513
109	59
123	10
124	8
125	5
140	44
156	729
157	57
158	38
172	999
173	85
174	54
