Mass spectrum: ISOBUTYRONITRILE; EI-MS
Formula: C4H7N
Exact mass: 69.05785
Instrument type: EI-MS
m/z	relative intensity
14	13
15	55
26	102
27	182
28	223
29	14
37	42
38	46
39	139
40	53
41	250
42	999
43	37
51	54
52	110
53	104
54	281
64	17
66	13
67	12
68	611
69	30
