Mass spectrum: 1,6-DIMETHYL-3,4-(5'-METHYLBENZO)-2-OXABICYCLO(4.1.0)HEPT-3-EN-5-ONE; EI-MS
Formula: C13H14O2
Exact mass: 202.09938
Instrument type: EI-MS
m/z	relative intensity
50	120
51	260
52	150
53	245
54	20
55	50
56	10
57	10
61	10
62	70
63	260
64	85
65	145
66	10
67	140
68	15
69	99
73	10
74	15
75	40
76	45
77	380
78	240
79	125
80	10
85	15
86	125
87	50
88	20
89	410
90	425
91	325
102	20
103	30
104	20
105	125
106	95
107	200
108	415
109	30
110	10
115	210
116	99
117	30
118	380
119	60
120	15
121	50
127	20
128	70
129	50
130	20
131	125
132	30
133	10
134	50
135	630
136	50
137	10
138	20
139	10
140	10
141	20
142	10
143	30
144	40
145	260
146	50
147	10
157	50
158	70
159	960
160	260
161	130
162	500
163	50
164	10
165	40
172	10
173	290
174	20
175	10
185	20
186	10
187	545
188	60
189	20
201	80
202	999
203	160
204	20
