Mass spectrum: DECANOIC ACID TRIMETHYLSILYL ESTER; EI-MS
Formula: C13H28O2Si
Exact mass: 244.18586
Instrument type: EI-MS
m/z	relative intensity
43	106
45	110
55	193
61	8
73	999
74	108
75	856
76	7
81	84
95	72
117	635
129	20
131	165
132	195
145	118
229	387
