Mass spectrum: 2,2-DICHLOROBUTANE; EI-MS
Formula: C4H8Cl2
Exact mass: 126.00031
Instrument type: EI-MS
m/z	relative intensity
24	1
25	9
26	87
27	38
28	80
29	250
30	5
35	2
36	55
37	31
38	54
39	25
40	23
41	102
42	14
43	12
44	6
45	2
47	7
48	1
49	63
50	46
51	67
52	2
53	96
54	29
55	724
56	4
57	9
58	1
59	2
60	1
61	137
62	50
63	159
64	2
65	36
66	1
67	1
69	1
70	5
71	3
72	3
73	1
74	2
75	136
76	14
77	4
78	16
79	1
82	2
83	2
84	2
85	10
86	1
87	0
88	1
89	11
90	49
91	999
92	60
93	320
94	14
95	0
96	120
97	507
98	85
99	32
100	19
101	51
102	1
106	1
107	1
108	2
109	2
110	0
111	36
112	3
113	23
114	0
115	4
