Mass spectrum: TERPINYL ACETATE; EI-MS
Name: ACETIC ACID PARA-MENTH-1-EN-8-OL ESTER
Formula: C12H20O2
Exact mass: 196.14633
Instrument type: EI-MS
m/z	relative intensity
59	244
60	54
68	636
69	473
80	239
81	265
92	378
93	976
107	283
108	196
121	924
122	149
136	684
137	222
