Mass spectrum: NONADECANOIC ACID TRIMETHYLSILYL ESTER; EI-MS
Formula: C22H46O2Si
Exact mass: 370.32671
Instrument type: EI-MS
m/z	relative intensity
43	275
45	90
55	241
56	6
57	169
61	58
67	101
69	12
70	54
71	58
73	999
74	6
75	516
77	90
83	130
85	6
88	56
95	79
98	81
117	90
118	108
119	74
129	336
131	14
132	381
133	58
143	58
145	31
201	90
355	329
370	51
