Mass spectrum: 1-ISOPROPYLALLYL ACETATE; EI-MS
Formula: C8H14O2
Exact mass: 142.09938
Instrument type: EI-MS
m/z	relative intensity
15	30
18	15
25	55
26	4
27	25
29	10
39	40
41	9
43	999
44	10
55	60
56	1
57	60
58	20
65	80
66	2
80	120
81	10
99	160
100	14
101	20
