Mass spectrum: FLAVANONE (3,3-D2); EI-MS
Name: 2-PHENYLCHROMAN-4-ONE (3,3-D2)
Formula: C15H12O2
Exact mass: 224.08373
Instrument type: EI-MS
m/z	relative intensity
28	39
39	27
50	10
51	4
52	15
63	91
64	129
65	1
66	17
77	37
78	57
79	8
80	28
91	15
92	460
93	2
104	55
105	110
106	411
107	1
120	999
121	72
122	59
148	2
149	405
150	15
208	26
224	4
225	337
226	675
227	89
