Mass spectrum: (2S)-N-CARBOBENZOXY-2-(4-HYDROXY-1-OXOBUTYL)PYRROLIDINE; EI-MS
Formula: C16H21NO4
Exact mass: 291.14706
Instrument type: EI-MS
m/z	relative intensity
70	13
91	999
92	22
114	11
160	226
204	196
291	1
