Mass spectrum: ISOBUTYL ACRYLATE; EI-MS
Formula: C7H12O2
Exact mass: 128.08373
Instrument type: EI-MS
m/z	relative intensity
15	10
26	30
27	246
28	30
29	74
31	18
39	52
40	11
41	138
42	22
43	52
55	999
56	550
57	57
69	20
70	25
73	111
85	93
