Mass spectrum: PROPYL 2-METHYLBUTYRATE; EI-MS
Formula: C8H16O2
Exact mass: 144.11503
Instrument type: EI-MS
m/z	relative intensity
15	11
26	24
27	271
29	330
30	12
31	27
39	140
41	498
42	112
43	494
44	12
45	25
53	12
55	57
56	114
57	999
58	46
59	50
69	13
73	36
74	250
75	36
85	683
86	44
87	128
102	37
103	701
104	42
115	20
116	122
