Mass spectrum: N-BUTYL BUTYRATE; EI-MS
Formula: C8H16O2
Exact mass: 144.11503
Instrument type: EI-MS
m/z	relative intensity
15	19
26	17
27	220
28	63
29	242
31	22
39	93
40	16
41	358
42	51
43	601
44	20
45	15
55	76
56	634
57	198
60	114
61	21
70	14
71	999
72	49
73	72
88	69
89	606
90	29
101	69
116	24
144	4
