Mass spectrum: CIS-3-HEXENYL DECANOATE; EI-MS
Formula: C16H30O2
Exact mass: 254.22458
Instrument type: EI-MS
m/z	relative intensity
27	40
29	30
39	41
41	189
42	33
43	149
53	22
54	31
55	195
56	22
57	75
60	11
67	397
68	25
69	34
71	64
73	13
79	12
81	40
82	999
83	146
84	15
85	39
95	18
155	80
156	11
