Mass spectrum: ISOBUTYL 3-NITROBENZOATE; EI-MS
Formula: C11H13NO4
Exact mass: 223.08446
Instrument type: EI-MS
m/z	relative intensity
27	21
29	62
39	30
40	37
41	125
43	44
50	62
51	14
55	41
56	999
57	92
63	10
64	14
65	43
72	10
73	14
74	15
75	53
76	208
77	23
92	42
93	11
103	10
104	286
105	25
120	24
121	38
122	24
134	46
137	18
150	947
151	163
152	24
168	62
169	12
