Mass spectrum: BUTYL CHLORIDE; EI-MS
Formula: C4H9Cl
Exact mass: 92.03928
Instrument type: EI-MS
m/z	relative intensity
15	13
26	41
27	285
28	158
29	180
38	16
39	98
40	21
41	540
42	44
43	340
44	12
49	25
50	14
51	12
53	12
55	73
56	999
57	54
62	13
63	45
65	14
92	7
