Mass spectrum: 1-PHENYL-3-OCTANONE; EI-MS
Formula: C14H20O
Exact mass: 204.15142
Instrument type: EI-MS
m/z	relative intensity
41	232
42	53
43	999
44	51
51	116
55	163
65	125
71	472
77	213
78	98
79	104
80	161
81	187
82	56
91	983
92	106
99	404
103	161
104	321
105	781
106	86
130	262
131	196
133	309
146	75
148	211
204	110
