Mass spectrum: 6,6,8BETA-TRIMETHYL-5ALPHA-TRICYCLO(6.3.0.0(1,5))UNDEC-10-EN-2-ONE; EI-MS
Formula: C14H20O
Exact mass: 204.15142
Instrument type: EI-MS
m/z	relative intensity
94	34
106	13
107	25
108	1
109	19
110	62
120	18
121	2
132	22
133	11
135	17
146	44
147	397
148	285
149	38
161	1
162	45
163	22
171	17
174	7
176	32
183	19
184	135
185	4
189	148
204	999
205	413
