Mass spectrum: PROPYL BROMIDE; EI-MS
Formula: C3H7Br
Exact mass: 121.97311
Instrument type: EI-MS
m/z	relative intensity
15	25
26	43
27	372
28	46
29	52
37	20
38	31
39	134
40	23
41	369
42	98
43	999
44	35
93	13
95	13
107	17
109	15
122	146
123	9
124	143
