Mass spectrum: 2-HYDROXY-2-BENZOYL-1,7,7-TRIMETHYLBICYCLO(2.2.1)HEPTAN-3-ONE; EI-MS
Formula: C17H20O3
Exact mass: 272.14124
Instrument type: EI-MS
m/z	relative intensity
28	2
41	36
43	29
51	2
55	22
69	15
77	160
95	2
105	999
106	77
107	17
121	2
122	51
123	78
139	27
150	5
167	48
244	17
272	41
