Mass spectrum: ETHYLENE GLYCOL MONO-ISOBUTYL ETHER; EI-MS
Formula: C6H14O2
Exact mass: 118.09938
Instrument type: EI-MS
m/z	relative intensity
15	28
27	119
28	28
29	237
31	87
39	79
40	13
41	318
42	30
43	57
44	26
45	736
46	23
55	43
56	98
57	999
58	40
62	11
63	13
71	45
72	19
73	26
75	230
76	11
87	109
100	13
118	4
