Mass spectrum: 2-O-METHYL-1,3,4,5,6-PENTA-O-ACETYL GLUCITOL; EI-MS
Formula: C17H26O11
Exact mass: 406.14751
Instrument type: EI-MS
m/z	relative intensity
43	102
44	5
58	25
59	5
83	5
85	5
87	11
97	39
103	9
111	6
115	19
116	7
117	999
118	54
119	7
124	9
125	6
127	7
128	7
129	34
139	129
140	12
142	7
145	13
153	6
157	17
159	39
170	7
171	22
184	5
187	9
189	5
201	16
231	9
244	6
259	34
333	64
334	10
