Mass spectrum: PHTHALIC ACID DIPROPYL ESTER; EI-MS
Name: DIPROPYL PHTHALATE
Formula: C14H18O4
Exact mass: 250.12051
Instrument type: EI-MS
m/z	relative intensity
27	34
29	13
31	15
39	19
41	57
42	19
43	93
50	12
65	28
76	30
77	19
93	33
104	31
105	41
121	30
122	22
123	12
149	999
150	88
151	11
191	62
192	10
209	45
