Mass spectrum: TETRAHYDROFURFURYL BUTYRATE; EI-MS
Formula: C9H16O3
Exact mass: 172.10994
Instrument type: EI-MS
m/z	relative intensity
27	78
29	34
39	39
41	124
42	53
43	329
44	13
55	23
70	21
71	999
72	40
84	126
85	15
