Mass spectrum: 3-PHENYLPROPYL ISOBUTYRATE; EI-MS
Formula: C13H18O2
Exact mass: 206.13068
Instrument type: EI-MS
m/z	relative intensity
27	91
28	12
39	66
41	138
42	14
43	330
44	14
51	35
52	10
63	15
65	86
71	70
77	47
78	33
79	25
89	17
91	386
92	37
103	32
104	20
105	34
115	22
116	26
117	694
118	999
119	110
