Mass spectrum: 3-METHYLTETRAHYDROFURAN; EI-MS
Formula: C5H10O
Exact mass: 86.07316
Instrument type: EI-MS
m/z	relative intensity
27	285
28	51
29	350
39	30
41	947
42	89
43	91
44	10
55	264
56	999
57	144
71	9
85	119
86	548
87	27
