Mass spectrum: BETA-INDOLEACETIC ACID; EI-MS
Name: INDOLE-3-ACETIC ACID
Formula: C10H9NO2
Exact mass: 175.06333
Instrument type: EI-MS
m/z	relative intensity
77	13
103	34
129	14
130	999
131	105
132	17
175	823
176	94
