Mass spectrum: PHTHALIC ACID DIMETHYL ESTER (D6); EI-MS
Name: DI(2H3)METHYL PHTHALATE
Formula: C10H10O4
Exact mass: 194.05791
Instrument type: EI-MS
m/z	relative intensity
18	44
28	25
31	16
32	13
50	61
52	12
64	17
74	16
75	17
76	63
77	11
78	181
79	14
82	14
92	71
104	25
106	14
120	11
134	39
138	77
165	11
166	999
167	94
200	68
