Mass spectrum: CHOLESTANOL; EI-MS
Formula: C27H48O
Exact mass: 388.37052
Instrument type: EI-MS
m/z	relative intensity
43	296
44	368
55	321
57	228
67	249
69	283
71	100
81	29
83	122
91	120
93	172
95	26
105	105
107	215
108	207
109	17
121	156
122	111
123	117
149	25
165	172
189	185
190	272
204	15
215	325
216	175
217	172
220	24
233	476
234	792
235	132
373	22
388	999
389	302
