Mass spectrum: CYCLOOCTENE; EI-MS
Formula: C8H14
Exact mass: 110.10955
Instrument type: EI-MS
m/z	relative intensity
15	16
26	22
27	273
28	69
29	114
38	23
39	425
40	81
41	745
42	75
43	43
50	26
51	62
52	36
53	182
54	810
55	243
56	101
63	14
65	52
66	60
67	999
68	392
69	161
70	28
77	43
78	13
79	70
80	35
81	451
82	675
83	55
84	12
91	17
93	12
94	174
95	15
109	11
110	366
111	32
