Mass spectrum: CYCLOPROPANE; EI-MS
Formula: C3H6
Exact mass: 42.04695
Instrument type: EI-MS
m/z	relative intensity
12	3
13	5
15	23
16	2
17	19
18	93
19	25
20	20
21	6
25	9
26	67
27	259
32	161
36	16
37	85
38	125
39	599
40	302
41	944
42	999
43	44
45	3
55	4
57	3
