Mass spectrum: 1,2,3-CYCLOHEXANETRIOL; EI-MS
Formula: C6H12O3
Exact mass: 132.07864
Instrument type: EI-MS
m/z	relative intensity
43	255
57	995
58	496
70	999
83	263
86	272
96	279
114	63
132	40
