Mass spectrum: 1-METHYL-1-PROPYLHYDRAZINE; EI-MS
Formula: C4H12N2
Exact mass: 88.10005
Instrument type: EI-MS
m/z	relative intensity
27	75
28	21
29	31
30	15
31	30
39	37
40	7
41	6
42	277
43	91
44	49
45	11
46	15
56	13
57	11
58	1
59	999
60	31
70	10
71	1
72	5
73	3
88	172
89	12
