Mass spectrum: CYCLOHEXANEPENTOL; EI-MS
Formula: C6H12O5
Exact mass: 164.06847
Instrument type: EI-MS
m/z	relative intensity
43	351
57	350
60	946
71	59
73	999
74	335
87	359
128	342
