Mass spectrum: PHENYLACETIC ACID METHYL ESTER; EI-MS
Formula: C9H10O2
Exact mass: 150.06808
Instrument type: EI-MS
m/z	relative intensity
15	25
28	10
31	11
39	58
41	10
50	11
51	24
59	57
63	33
65	121
77	10
89	38
90	26
91	999
92	76
105	15
118	22
119	16
150	301
151	29
