Mass spectrum: 2-HYDROXY-3-METHOXY MANDELIC ACID; EI-MS
Formula: C9H10O5
Exact mass: 198.05282
Instrument type: EI-MS
m/z	relative intensity
27	125
29	109
31	35
38	36
39	278
41	32
43	28
44	81
45	70
50	74
51	152
52	109
53	186
55	108
62	22
63	133
64	95
65	535
66	67
69	34
75	20
76	88
77	136
78	168
79	69
80	45
81	192
92	142
93	999
94	98
104	37
105	81
106	370
107	150
108	89
109	154
110	210
119	40
120	112
121	67
122	120
123	44
124	26
125	277
134	75
135	130
136	208
137	265
138	170
139	24
151	122
152	347
153	988
154	91
162	397
163	51
164	69
180	327
181	33
182	66
198	591
199	61
