Mass spectrum: 2-PHENYLINDOLE; EI-MS
Formula: C14H11N
Exact mass: 193.08915
Instrument type: EI-MS
m/z	relative intensity
50	16
51	25
52	12
62	19
64	12
74	14
75	14
76	1
77	21
83	15
84	25
88	1
89	71
90	62
91	11
95.5	3
96.5	61
114	10
115	18
139	2
140	13
163	22
164	28
165	17
166	32
167	10
190	35
191	5
192	88
193	999
194	143
195	10
