Mass spectrum: ALPHA,ALPHA,ALPHA-TRIFLUOROTOLUENE; EI-MS
Formula: C7H5F3
Exact mass: 146.03433
Instrument type: EI-MS
m/z	relative intensity
27	33
29	42
31	19
38	26
39	49
41	60
43	97
50	131
51	191
55	53
57	98
63	37
63.5	29
69	65
70	41
71	47
73	23
74	64
75	99
76	32
77	169
83	29
85	30
95	50
96	380
97	41
99	26
101	22
115	15
125	44
126	46
127	508
128	60
144	23
145	386
146	999
147	77
