Mass spectrum: TRIBUTOXYETHYL PHOSPHATE; EI-MS
Formula: C18H39O7P
Exact mass: 398.24334
Instrument type: EI-MS
m/z	relative intensity
44	111
45	374
46	22
54	118
55	379
56	999
57	46
58	6
59	98
61	26
62	63
69	2
71	102
72	67
73	77
75	13
85	122
87	176
88	23
89	5
99	96
100	126
101	67
116	2
125	21
143	23
155	40
205	2
211	32
249	94
251	64
