Mass spectrum: DIHYDROCHOLESTEROL; EI-MS
Name: CHOLESTANOL
Formula: C27H48O
Exact mass: 388.37052
Instrument type: EI-MS
m/z	relative intensity
55	78
56	11
57	7
69	113
70	19
71	6
77	41
78	14
79	145
80	4
81	290
82	74
83	120
84	1
85	2
93	252
94	115
95	390
96	6
97	123
98	1
105	177
106	147
107	459
108	43
109	311
110	57
111	115
112	1
117	33
118	23
119	161
120	13
121	340
122	235
123	267
124	16
125	63
126	12
133	167
134	133
135	250
136	13
137	106
138	50
139	2
145	120
146	46
147	300
148	15
149	234
150	46
151	52
152	3
153	1
157	12
161	212
162	124
163	111
164	5
165	523
166	192
167	4
173	86
174	49
175	102
176	7
177	58
178	50
179	31
189	68
190	110
191	74
192	4
193	3
201	143
202	49
203	88
204	4
205	39
206	58
207	22
208	3
213	20
214	15
215	999
216	41
217	407
218	72
219	115
220	4
229	41
230	120
231	178
232	9
233	877
234	467
235	84
236	1
243	19
247	42
248	127
249	3
256	10
257	221
258	50
259	2
260	13
261	21
262	127
263	5
264	1
275	39
276	2
288	34
289	2
331	55
332	16
356	67
357	12
371	60
372	18
373	283
374	8
375	1
387	14
388	286
389	90
390	1
391	2
