Mass spectrum: 2-BUTYL-8-METHYL-1,2,3,4-TETRAHYDRO-GAMMA-CARBOLINE; EI-MS
Formula: C16H22N2
Exact mass: 242.1783
Instrument type: EI-MS
m/z	relative intensity
42	93
55	11
56	12
77	1
105	10
115	15
128	10
156	12
157	999
158	139
170	97
199	2
241	52
242	111
