Mass spectrum: CYCLOPENTYLACETIC ACID METHYL ESTER; EI-MS
Formula: C8H14O2
Exact mass: 142.09938
Instrument type: EI-MS
m/z	relative intensity
38	20
39	326
41	718
42	13
43	829
50	25
51	10
52	3
53	135
54	160
55	663
56	5
58	25
61	15
63	15
66	6
67	386
68	165
69	190
70	2
71	15
72	55
74	768
75	999
76	50
78	15
79	50
80	2
81	100
82	160
83	386
84	3
85	30
86	10
87	105
88	3
91	10
93	15
95	20
99	31
100	50
101	30
109	35
110	5
111	396
112	30
113	291
114	5
127	35
142	60
143	15
