Mass spectrum: 2-(1-PHENYLETHYL)-6-ISOPROPYL-1,3-DIOXANE; EI-MS
Formula: C15H22O2
Exact mass: 234.16198
Instrument type: EI-MS
m/z	relative intensity
27	30
29	24
39	35
41	87
42	18
43	181
45	85
51	20
53	11
55	129
56	25
57	36
59	28
65	13
77	75
78	20
79	44
83	999
84	70
85	15
91	30
103	31
104	17
105	269
106	31
129	296
130	23
