Mass spectrum: ISOPENTYL ACETATE; EI-MS
Formula: C7H14O2
Exact mass: 130.09938
Instrument type: EI-MS
m/z	relative intensity
28	18
29	23
41	44
42	150
43	898
44	24
45	22
55	461
56	42
57	40
58	30
61	151
69	73
70	999
71	65
72	34
73	172
74	34
85	22
87	134
88	25
115	11
130	9
