Mass spectrum: 2-PROPYL-5,5-DIMETHYL-1,3-CYCLOHEXANEDIONE; EI-MS
Formula: C11H18O2
Exact mass: 182.13068
Instrument type: EI-MS
m/z	relative intensity
41	180
42	300
43	170
55	690
56	190
69	190
83	999
84	570
97	190
98	190
111	260
112	110
125	170
126	90
140	170
153	170
154	130
167	170
182	230
