Mass spectrum: 3-(4-AMINO-4-METHYLPENTYL)INDOLE; EI-MS
Formula: C14H20N2
Exact mass: 216.16265
Instrument type: EI-MS
m/z	relative intensity
27	16
29	12
30	30
39	2
41	19
42	64
43	26
45	7
51	15
56	11
57	13
58	999
59	41
63	14
70	14
71	3
73	30
76	11
77	45
83.5	2
84	64
89	13
91	12
101	1
102	18
103	27
115	26
116	1
117	17
127	13
128	22
129	2
130	96
131	26
139	12
140	1
142	10
143	74
144	24
145	1
154	30
155	30
157	16
166	2
167	86
168	64
169	31
170	2
171	23
216	173
217	26
