Mass spectrum: DICYAN; EI-MS
Name: CYANOGEN
Formula: C2N2
Exact mass: 52.00615
Instrument type: EI-MS
m/z	relative intensity
12	30
14	17
15	6
24	39
26	145
28	17
29	14
30	58
31	7
38	26
44	31
52	999
53	30
