Mass spectrum: DIHYDROCARVEOL(TRANS-AXIAL); EI-MS
Name: 2-METHYL-5-ISOPROPENYLCYCLOHEXANOL(TRANS-AXIAL)
Formula: C10H18O
Exact mass: 154.13577
Instrument type: EI-MS
m/z	relative intensity
41	91
42	19
43	235
53	19
54	15
55	205
56	99
57	67
58	114
59	19
67	180
68	428
69	335
70	227
71	140
72	41
77	12
78	15
79	351
80	193
81	525
82	132
83	147
84	118
85	32
91	35
92	364
93	999
94	682
95	256
96	172
97	281
98	59
99	21
105	22
106	16
107	973
108	243
109	31
110	26
111	80
112	25
121	842
122	88
123	21
135	15
136	628
137	70
139	57
154	28
