Mass spectrum: ISOPENTYL ETHER; EI-MS
Formula: C10H22O
Exact mass: 158.16707
Instrument type: EI-MS
m/z	relative intensity
27	10
28	12
29	26
41	6
42	77
43	681
44	24
45	8
55	151
56	36
57	54
59	2
60	32
69	401
70	999
71	76
72	44
85	52
87	16
101	20
102	22
103	16
