Mass spectrum: 4-BUTOXYPHENOL; EI-MS
Formula: C10H14O2
Exact mass: 166.09938
Instrument type: EI-MS
m/z	relative intensity
39	17
41	95
42	4
53	16
54	22
55	37
56	7
57	69
58	2
61	11
64	3
65	22
66	2
67	2
69	4
73	23
77	1
80	4
81	58
82	59
83	4
93	19
94	4
95	10
107	2
108	1
109	57
110	999
111	171
112	16
123	24
124	2
136	1
166	410
167	62
168	6
