Mass spectrum: DODECANOL; EI-MS
Formula: C12H26O
Exact mass: 186.19837
Instrument type: EI-MS
m/z	relative intensity
15	11
27	205
29	449
30	11
31	391
39	157
40	18
41	895
42	323
43	965
44	37
45	28
53	55
54	82
55	999
56	720
57	599
58	32
67	95
68	297
69	763
70	673
71	162
72	12
73	22
81	35
82	217
83	609
84	392
85	87
96	60
97	374
98	188
99	20
110	25
111	155
112	96
124	10
125	47
126	27
139	17
140	79
141	17
168	21
