Mass spectrum: 9-METHYL-4-OXO-4H-PYRIDO(1,2-A)PYRIMIDINE-3-ACETIC ACID ETHYL ESTER; EI-MS
Formula: C13H14N2O3
Exact mass: 246.10044
Instrument type: EI-MS
m/z	relative intensity
39	50
44	7
51	10
52	1
55	50
63	10
64	15
65	9
66	15
72	10
72.5	10
78	1
86.5	15
90	7
91	12
92	21
93	32
117	7
118	7
119	4
120	5
143	10
144	27
145	5
146	10
172	7
173	999
174	13
175	10
178	5
200	7
201	4
217	2
232	12
233	2
246	25
247	37
248	5
