Mass spectrum: TOLUALDEHYDE; EI-MS
Name: 4-METHYLBENZALDEHYDE
Formula: C8H8O
Exact mass: 120.05751
Instrument type: EI-MS
m/z	relative intensity
37	31
38	58
39	257
41	54
43	35
44	30
50	86
51	130
52	28
53	29
61	33
62	86
63	168
64	53
65	283
74	24
89	97
91	999
92	100
119	742
120	748
121	83
