Mass spectrum: (2S)-N-TERT-BUTOXYCARBONYL-2-(2-TETRAHYDROFURANYL)PYRROLIDINE; EI-MS
Formula: C13H23NO3
Exact mass: 241.16779
Instrument type: EI-MS
m/z	relative intensity
57	36
70	382
114	999
170	569
185	44
241	17
