Mass spectrum: N-NITROSO DICYCLOHEXYLAMINE; EI-MS
Formula: C12H22N2O
Exact mass: 210.17321
Instrument type: EI-MS
m/z	relative intensity
27	92
28	48
29	118
30	76
36	27
39	107
41	435
42	55
43	67
44	125
47	59
53	54
54	117
55	794
56	114
67	137
68	33
69	29
70	22
79	24
80	22
81	101
82	122
83	999
84	58
98	147
111	35
128	69
129	165
193	22
210	113
