Mass spectrum: 3-ETHYL-1-(2-(6-METHYL-3-PYRIDYL)ETHYL)INDOLE; EI-MS
Formula: C18H20N2
Exact mass: 264.16265
Instrument type: EI-MS
m/z	relative intensity
57	112
77	10
86	11
91	1
105	13
106	10
107	21
128	1
130	58
143	180
158	999
159	10
249	12
264	190
