Mass spectrum: 3-METHOXY-3-METHYLBUTYL ACETATE; EI-MS
Formula: C8H16O3
Exact mass: 160.10994
Instrument type: EI-MS
m/z	relative intensity
15	45
27	30
28	34
31	10
39	29
41	103
42	25
43	308
45	31
53	13
55	78
56	17
68	19
69	151
70	21
71	13
72	11
73	999
74	44
85	293
86	24
