Mass spectrum: ISOPENTYL VALERATE; EI-MS
Formula: C10H20O2
Exact mass: 172.14633
Instrument type: EI-MS
m/z	relative intensity
27	155
29	239
31	11
39	101
41	324
42	119
43	386
44	13
45	18
53	17
55	327
56	55
57	365
58	17
60	53
61	10
69	47
70	999
71	246
72	13
73	29
85	651
86	35
87	11
102	14
103	142
115	19
129	24
130	11
