Mass spectrum: CYCLOHEXYLACETIC ACID TRIMETHYLSILYL ESTER; EI-MS
Formula: C11H22O2Si
Exact mass: 214.13891
Instrument type: EI-MS
m/z	relative intensity
43	52
44	49
45	98
47	8
55	121
59	43
61	46
67	4
72	54
73	453
74	60
75	70
76	57
77	158
79	98
81	6
83	20
107	43
116	46
117	999
118	95
119	49
131	78
132	34
133	83
147	17
148	20
155	2
199	364
200	63
