Mass spectrum: 2-(4-BROMOPHENYL)-1,1-DIPHENYLETHENE; EI-MS
Formula: C20H15Br
Exact mass: 334.03571
Instrument type: EI-MS
m/z	relative intensity
50	47
51	108
52	22
62	2
63	70
74	39
75	67
76	6
77	78
78	26
80	41
82	4
87	40
88	52
89	37
91	4
99	26
100	61
101	102
102	4
112	58
113	242
114	91
115	3
119	41
120	193
125	126
126	37
127	119
128	31
139	23
150	4
151	62
152	62
153	20
163	3
164	24
165	117
166	14
175	2
176	201
177	152
178	436
179	11
189	32
200	25
201	15
202	0
213	26
215	71
224	23
225	2
226	95
227	43
228	81
229	2
238	21
239	332
240	335
241	7
245	28
250	97
251	65
252	48
253	594
254	566
255	659
256	26
257	38
258	81
319	24
321	2
334	999
335	219
336	987
337	166
