Mass spectrum: 3-METHYL-1-BUTANOL; EI-MS
Name: ISOPENTYL ALCOHOL
Formula: C5H12O
Exact mass: 88.08882
Instrument type: EI-MS
m/z	relative intensity
15	11
19	12
27	203
28	100
29	407
31	328
39	184
40	30
41	728
42	806
43	644
44	40
45	161
46	66
53	27
55	999
56	358
57	526
58	24
69	51
70	742
71	67
