Mass spectrum: DIMETHYL PHTHALATE; EI-MS
Formula: C10H10O4
Exact mass: 194.05791
Instrument type: EI-MS
m/z	relative intensity
50	65
51	23
52	15
63	11
64	19
66	15
74	19
75	22
76	81
77	187
78	13
79	13
92	64
104	47
105	28
120	20
133	39
135	69
163	999
164	105
165	11
194	72
