Mass spectrum: 1-PHENYL-2-METHYL-2-BUTANOL; EI-MS
Formula: C11H16O
Exact mass: 164.12012
Instrument type: EI-MS
m/z	relative intensity
15	17
18	23
27	85
29	124
31	51
39	111
41	44
42	11
43	372
44	11
45	82
50	20
51	57
52	16
53	19
55	279
56	12
57	119
58	15
63	39
64	16
65	157
66	12
68	10
71	10
72	13
73	813
74	37
77	40
78	19
79	15
89	30
90	17
91	484
92	999
93	93
104	10
105	22
115	34
116	18
117	67
131	54
135	146
136	12
146	31
149	32
