Mass spectrum: ALPHA-SANTALENE; EI-MS
Formula: C15H24
Exact mass: 204.1878
Instrument type: EI-MS
m/z	relative intensity
26	5
27	100
28	40
29	12
39	135
40	21
41	605
42	3
43	150
45	15
50	6
51	4
52	16
53	125
54	13
55	26
56	26
57	22
63	10
64	0
65	80
66	40
67	150
68	2
69	415
70	35
71	8
75	1
77	225
78	51
79	310
80	0
81	85
82	80
83	28
89	1
90	8
91	297
92	86
93	9
94	999
95	480
96	51
97	0
103	20
104	11
105	211
106	8
107	343
108	145
109	110
110	2
115	11
116	6
117	18
118	1
119	161
120	120
121	390
122	23
123	40
129	5
131	8
133	9
134	43
135	70
136	25
137	6
138	10
147	25
148	40
149	3
150	5
161	105
162	15
163	1
175	13
176	31
177	5
189	1
190	18
204	175
205	30
