Mass spectrum: DIETHYL 1,1-CYCLOPROPANEDICARBOXYLATE; EI-MS
Formula: C9H14O4
Exact mass: 186.08921
Instrument type: EI-MS
m/z	relative intensity
30	12
31	23
39	107
40	90
41	149
42	17
45	65
53	21
54	20
55	20
57	20
59	12
67	17
68	116
69	110
71	12
82	71
83	15
84	54
85	110
86	171
87	16
95	121
96	17
97	50
99	30
111	13
112	483
113	609
114	236
129	11
130	434
131	48
140	48
141	999
142	105
143	18
158	271
159	220
160	24
186	54
