Mass spectrum: 1-N-PROPYLCYCLOHEXANE-1-OL; EI-MS
Formula: C9H18O
Exact mass: 142.13577
Instrument type: EI-MS
m/z	relative intensity
29	321
39	290
41	581
43	29
55	330
67	365
83	562
109	999
