Mass spectrum: BUTANAL BUTYL ISOPROPYL ACETAL; EI-MS
Formula: C11H24O2
Exact mass: 188.17763
Instrument type: EI-MS
m/z	relative intensity
15	12
18	24
27	195
28	2
29	239
31	54
39	62
40	1
41	345
42	40
43	444
44	4
45	49
47	31
55	422
56	5
57	999
58	38
59	13
71	3
72	33
73	843
74	34
89	4
103	339
104	15
115	299
116	2
129	107
145	148
146	15
