Mass spectrum: 2,6-DIMETHYLNAPHTHALENE; EI-MS
Formula: C12H12
Exact mass: 156.0939
Instrument type: EI-MS
m/z	relative intensity
43	10
50	70
51	267
52	30
53	15
57	21
58	30
62	51
63	250
64	237
65	48
69	16
70	37
71	25
74	39
75	75
76	331
77	376
78	139
86	12
87	18
89	34
102	18
115	139
116	13
126	16
127	58
128	101
129	49
139	67
140	34
141	647
142	77
151	30
152	97
153	107
154	54
155	359
156	999
157	131
