Mass spectrum: BUTANE (1-D1); EI-MS
Formula: C4H10
Exact mass: 58.07825
Instrument type: EI-MS
m/z	relative intensity
27	51
28	155
29	256
30	13
41	114
42	163
43	213
44	999
45	30
56	39
58	32
59	176
