Mass spectrum: BENZHYDROL; EI-MS
Name: DI-PHENYLMETHYL ALCOHOL
Formula: C13H12O
Exact mass: 184.08882
Instrument type: EI-MS
m/z	relative intensity
27	15
39	25
50	26
51	111
52	22
63	18
75	15
76	22
77	358
78	437
79	256
82	16
82.5	22
83	16
105	999
106	102
107	126
115	12
152	29
153	15
155	16
165	76
166	26
167	35
168	15
182	11
183	156
184	295
185	37
