Mass spectrum: PROPYL BENZOATE; EI-MS
Formula: C10H12O2
Exact mass: 164.08373
Instrument type: EI-MS
m/z	relative intensity
41	15
42	24
43	19
59	24
77	175
78	20
79	30
105	999
106	92
107	11
112	408
113	690
114	54
135	24
164	96
165	11
