Mass spectrum: CYCLOPENTANONE (2,2,5,5-D4); EI-MS
Formula: C5H8O
Exact mass: 84.05751
Instrument type: EI-MS
m/z	relative intensity
26	28
27	93
28	147
29	16
30	658
31	69
32	44
38	2
39	62
40	93
41	128
42	13
43	255
44	207
45	32
46	2
55	51
56	999
57	58
58	28
59	97
60	104
86	30
87	9
88	495
89	34
