Mass spectrum: (CHLOROIODOMETHYL)TRIMETHYLSILANE; EI-MS
Formula: C4H10ClISi
Exact mass: 247.9285
Instrument type: EI-MS
m/z	relative intensity
41	41
42	30
43	173
44	347
45	141
57	28
58	47
59	142
63	62
65	49
73	999
74	164
75	45
78	41
79	47
93	235
95	95
127	23
155	30
185	28
205	358
206	25
207	140
248	213
249	22
250	71
