Mass spectrum: 3-(TETRAHYDRO-2-FURANYL)-5-FLUOROURACIL; EI-MS
Formula: C8H9FN2O3
Exact mass: 200.05972
Instrument type: EI-MS
m/z	relative intensity
41	220
42	140
43	280
59	1
60	140
70	260
71	999
72	1
87	180
88	140
102	60
112	1
114	230
128	80
130	160
131	8
132	70
155	80
157	140
170	0
172	270
200	330
201	70
