Mass spectrum: 4-PENTEN-1-OL; EI-MS
Formula: C5H10O
Exact mass: 86.07316
Instrument type: EI-MS
m/z	relative intensity
41	155
42	34
43	999
44	12
53	89
54	14
55	34
61	29
67	378
68	773
69	53
73	24
86	13
