Mass spectrum: 6-METHYL-3-PROPYL-1,2,3,4-TETRAHYDRO-GAMMA-CARBOLINE; EI-MS
Formula: C15H20N2
Exact mass: 228.16265
Instrument type: EI-MS
m/z	relative intensity
42	33
56	12
77	13
102	1
115	14
128	10
156	93
157	999
158	135
170	93
171	13
199	2
227	109
228	177
