Mass spectrum: METHYL NONADECANOATE; EI-MS
Formula: C20H40O2
Exact mass: 312.30283
Instrument type: EI-MS
m/z	relative intensity
40	12
41	478
42	103
43	72
44	67
45	23
53	18
54	2
55	363
56	72
57	265
58	2
59	95
67	32
68	18
69	15
70	28
71	76
73	50
74	999
75	229
76	10
79	11
81	2
82	13
83	79
84	33
85	3
87	579
88	47
95	19
96	1
97	51
98	24
101	42
109	1
111	18
115	15
116	7
129	4
130	9
143	79
144	7
157	1
171	8
185	10
199	17
213	2
227	9
255	10
269	31
281	1
312	39
313	11
