Mass spectrum: 10-(2-DIETHYLAMINOPROPYL)-PHENOTHIAZINE; EI-MS
Name: ETHOPROPAZINE
Formula: C19H24N2S
Exact mass: 312.16602
Instrument type: EI-MS
m/z	relative intensity
70	19
71	14
72	39
83	2
84	27
85	19
98	19
99	1
100	999
101	74
178	13
179	2
180	9
197	38
198	19
199	1
211	14
212	24
213	4
312	0
313	4
