Mass spectrum: TERT-BUTYL ACETATE; EI-MS
Formula: C6H12O2
Exact mass: 116.08373
Instrument type: EI-MS
m/z	relative intensity
27	19
29	137
31	18
39	42
40	12
41	386
42	26
43	999
44	21
55	32
56	364
57	951
58	43
59	432
60	15
61	23
101	232
102	14
117	24
