Mass spectrum: 3,7-DIMETHYL-2,6-OCTADIENENITRILE(CIS); EI-MS
Name: CIS-GERANYL NITRILE
Formula: C10H15N
Exact mass: 149.12045
Instrument type: EI-MS
m/z	relative intensity
27	90
28	13
29	30
39	122
40	20
41	581
42	19
43	18
51	21
52	13
53	78
55	11
65	15
66	13
67	29
68	15
69	999
70	44
77	13
79	11
80	11
81	100
121	12
134	95
148	24
149	33
