Mass spectrum: TERT-BUTYLDIMETHYLSILANOL; EI-MS
Formula: C6H16OSi
Exact mass: 132.09704
Instrument type: EI-MS
m/z	relative intensity
41	31
43	15
45	44
47	36
56	20
57	13
60	10
61	22
74	38
75	999
76	79
77	40
132	47
