Mass spectrum: 1-HEPTANOL; EI-MS
Formula: C7H16O
Exact mass: 116.12012
Instrument type: EI-MS
m/z	relative intensity
27	31
28	15
29	114
31	119
39	17
41	343
42	336
43	442
44	27
45	22
53	11
54	46
55	537
56	786
57	212
58	11
67	15
68	146
69	507
70	999
71	58
73	21
83	88
97	18
98	77
99	12
115	3
