Mass spectrum: DIBUTYL SUCCINATE; EI-MS
Formula: C12H22O4
Exact mass: 230.15181
Instrument type: EI-MS
m/z	relative intensity
27	22
29	65
39	14
41	93
43	18
55	51
56	114
57	129
73	26
74	28
100	18
101	999
102	44
119	26
130	14
157	177
158	12
175	33
