Mass spectrum: CLIONASTERYL-ACETATE; EI-MS
Formula: C31H52O2
Exact mass: 456.39673
Instrument type: EI-MS
m/z	relative intensity
15	13
27	22
29	61
39	15
41	212
42	74
43	758
44	18
53	25
55	264
56	27
57	273
61	9
65	12
67	134
68	17
69	166
70	12
71	108
77	42
78	15
79	121
80	21
81	272
82	24
83	54
84	9
85	104
91	153
92	40
93	162
94	40
95	166
96	15
97	43
99	11
103	9
104	13
105	188
106	66
107	179
108	62
109	91
110	10
111	34
115	16
116	11
117	66
118	35
119	117
120	125
121	118
122	30
123	47
125	13
128	19
129	40
130	23
131	99
132	30
133	135
134	38
135	78
136	18
137	19
141	14
142	15
143	93
144	39
145	221
146	82
147	276
148	63
149	55
150	8
151	9
155	10
157	49
158	52
159	110
160	68
161	73
162	21
163	43
169	9
171	27
172	13
173	39
174	15
175	25
176	9
177	27
183	9
185	27
186	11
187	18
189	11
191	16
197	14
199	32
200	16
201	21
212	11
213	90
214	29
215	17
227	13
228	25
229	16
233	13
234	16
241	10
254	16
255	103
256	22
273	15
274	13
275	73
276	21
283	16
287	12
288	74
289	24
354	18
381	120
382	40
395	12
396	999
397	323
398	55
