Mass spectrum: TRICHLOROFLUOROMETHANE; EI-MS
Formula: CCl3F
Exact mass: 135.90496
Instrument type: EI-MS
m/z	relative intensity
31	93
35	128
37	45
47	11
49	39
66	176
68	60
82	4
84	25
101	999
103	591
105	110
