Mass spectrum: 1,3,5-TRIACETYLBENZENE; EI-MS
Formula: C12H12O3
Exact mass: 204.07864
Instrument type: EI-MS
m/z	relative intensity
28	31
39	10
43	538
44	2
50	14
51	10
63	14
65	1
74	20
75	58
76	28
77	2
89	14
91	56
103	14
118	4
119	89
146	20
147	18
161	20
162	34
189	999
190	127
191	1
204	166
205	25
