Mass spectrum: 3-AMINO-1-PROPANOL; EI-MS
Formula: C3H9NO
Exact mass: 75.06841
Instrument type: EI-MS
m/z	relative intensity
15	14
17	21
18	218
26	14
27	39
28	107
29	41
30	999
31	63
41	22
42	34
43	23
44	71
45	32
55	13
56	35
57	28
58	18
75	24
