Mass spectrum: BUTYL 12-CARBOXYMETHYL-9-OCTADECENOATE; EI-MS
Formula: C24H44O4
Exact mass: 396.32396
Instrument type: EI-MS
m/z	relative intensity
53	111
54	999
55	483
56	677
57	40
58	27
59	127
60	7
65	34
66	42
67	822
68	34
69	596
70	115
71	108
73	11
77	55
78	31
79	245
80	18
81	894
82	397
83	57
84	19
85	88
87	55
91	73
93	16
94	164
95	488
96	359
97	39
98	258
99	76
101	71
105	4
106	38
107	104
108	102
109	26
110	222
111	133
112	65
113	8
114	32
115	65
116	30
117	8
119	52
121	122
122	108
123	20
124	191
125	83
127	44
129	7
133	40
135	119
136	86
137	14
138	118
139	63
141	43
147	5
148	51
149	85
150	158
151	10
152	67
153	54
155	106
157	4
159	245
163	52
164	135
165	11
166	173
167	85
171	71
177	4
178	88
179	50
180	51
181	5
183	38
185	44
195	51
208	5
209	34
