Mass spectrum: (E)-3,7-DIMETHYL-2,6-OCTADIEN-1-OL; EI-MS
Name: GERANIOL
Formula: C10H18O
Exact mass: 154.13577
Instrument type: EI-MS
m/z	relative intensity
41	114
56	11
57	30
59	66
67	3
68	217
69	999
70	74
71	6
72	21
79	15
80	143
81	7
82	15
83	27
84	163
85	3
94	54
95	25
96	69
97	3
98	32
108	12
109	21
110	26
111	15
112	29
121	114
122	12
123	22
124	20
136	96
137	12
139	5
154	56
