Mass spectrum: INDOLE; EI-MS
Formula: C8H7N
Exact mass: 117.05785
Instrument type: EI-MS
m/z	relative intensity
17	13
18	53
27	15
28	102
32	18
37	14
38	26
39	4
41	10
50	29
51	26
52	2
58.5	67
62	52
63	105
64	4
65	13
74	10
86	14
87	2
88	18
89	232
90	360
91	3
116	90
117	999
118	93
