Mass spectrum: ISOPENTYL PHENYLACETATE; EI-MS
Formula: C13H18O2
Exact mass: 206.13068
Instrument type: EI-MS
m/z	relative intensity
29	42
41	46
42	15
43	999
44	27
55	71
65	15
69	12
70	366
71	156
91	286
93	79
136	56
137	15
