Mass spectrum: DIBENZO(C,E)-1,1,2,2-TETRAMETHYL-1,2-DISILACYCLOHEXA-3,5-DIENE; EI-MS
Formula: C16H20Si2
Exact mass: 268.11035
Instrument type: EI-MS
m/z	relative intensity
43	48
45	28
53	19
58	41
59	13
73	354
74	29
75	13
153	12
165	128
166	22
167	20
179	19
180	37
181	22
193	47
194	15
195	999
196	198
197	58
237	12
251	10
253	179
254	49
255	19
267	12
268	304
269	87
270	34
