Mass spectrum: METHYLPROPYLSILANE; EI-MS
Formula: C4H12Si
Exact mass: 88.07083
Instrument type: EI-MS
m/z	relative intensity
15	8
27	57
28	68
29	5
31	40
39	45
41	57
42	13
43	270
44	493
45	999
46	7
47	32
53	26
55	28
57	2
58	309
59	400
60	36
61	2
66	13
67	13
70	17
71	6
72	71
73	331
74	28
75	1
85	14
86	377
87	164
88	156
