Mass spectrum: PHENETOLE; EI-MS
Formula: C8H10O
Exact mass: 122.07316
Instrument type: EI-MS
m/z	relative intensity
27	31
29	31
38	15
39	7
40	19
50	18
51	50
55	2
63	19
64	10
65	75
66	13
77	79
78	12
79	12
93	1
94	999
95	60
122	379
123	29
