Mass spectrum: 1-HYDROXYMETHYL-2-METHYLCYCLOHEXANE; EI-MS
Formula: C8H16O
Exact mass: 128.12012
Instrument type: EI-MS
m/z	relative intensity
27	172
29	230
31	243
39	25
41	356
55	999
81	170
97	668
