Mass spectrum: ACETIC ACID; EI-MS
Formula: C2H4O2
Exact mass: 60.02113
Instrument type: EI-MS
m/z	relative intensity
13	30
14	68
15	279
16	23
17	13
28	22
29	104
31	37
40	11
41	36
42	121
43	999
44	37
45	867
46	11
60	502
61	10
