Mass spectrum: METHACRYLIC ACID ALLYL ESTER; EI-MS
Name: ALLYL METHACRYLATE
Formula: C7H10O2
Exact mass: 126.06808
Instrument type: EI-MS
m/z	relative intensity
15	16
26	14
27	32
28	22
29	26
31	11
38	21
39	256
40	54
41	957
42	47
43	27
55	19
57	63
67	14
69	999
70	64
79	15
81	156
82	16
87	22
97	22
98	12
111	81
126	4
