Mass spectrum: N-(3-METHYLBUTYL)ACETAMIDE; EI-MS
Name: ACETYLAMINO-3-METHYLBUTANE
Formula: C7H15NO
Exact mass: 129.11536
Instrument type: EI-MS
m/z	relative intensity
30	999
31	37
32	10
42	21
43	42
44	41
45	51
55	32
56	17
57	20
58	141
60	759
61	18
70	91
71	11
72	842
73	713
74	82
86	48
100	531
101	32
114	101
129	114
130	58
