Mass spectrum: ISOCROTYLHYDRAZONE ACETALDEHYDE; EI-MS
Name: ACETALDEHYDE (1-METHYL-2-PROPENYL)HYDRAZONE
Formula: C6H12N2
Exact mass: 112.10005
Instrument type: EI-MS
m/z	relative intensity
26	9
27	353
28	649
29	38
30	247
31	26
38	16
39	18
40	47
41	223
42	383
43	17
44	295
48.5	15
50	13
51	3
52	21
53	91
54	112
55	77
56	412
57	441
58	244
59	2
68	44
69	53
70	85
71	3
80	15
82	26
83	412
84	4
85	241
86	16
97	999
98	7
111	26
112	382
113	59
