Mass spectrum: 1-OCTADECANOL; EI-MS
Formula: C18H38O
Exact mass: 270.29227
Instrument type: EI-MS
m/z	relative intensity
40	24
41	850
42	211
43	999
44	53
45	20
53	33
54	8
55	750
56	366
57	622
58	3
66	10
67	99
68	195
69	45
70	242
71	200
72	10
73	1
81	46
82	178
83	378
84	13
85	89
95	18
96	57
97	25
98	65
99	16
110	20
111	11
112	35
113	8
124	10
125	4
126	17
138	5
139	12
140	1
153	5
154	5
167	3
168	0
181	1
182	2
195	1
196	0
224	3
252	1
