Mass spectrum: GAMMA-HEXACHLORO-CYCLOHEXANE; EI-MS
Formula: C6H6Cl6
Exact mass: 287.86007
Instrument type: EI-MS
m/z	relative intensity
296	40
294	50
292	80
290	120
288	70
258	40
256	160
254	220
252	140
223	120
221	490
219	999
217	800
185	320
183	910
181	970
149	300
113	160
111	660
109	750
