Mass spectrum: 2-TRIMETHYLSILYLMETHYL-1,3-BUTADIENETRICARBONYLIRON; EI-MS
Formula: C11H16FeO3Si
Exact mass: 280.02181
Instrument type: EI-MS
m/z	relative intensity
41	62
43	137
44	61
45	176
53	28
55	33
56	38
58	38
59	210
67	26
69	29
71	26
72	28
73	999
74	87
75	70
83	37
84	29
85	54
97	91
98	38
100	27
109	38
125	128
128	114
140	117
164	36
178	28
180	72
181	16
194	29
196	159
197	31
224	67
252	33
280	10
