Mass spectrum: ISOPROPYL ALCOHOL; EI-MS
Name: 2-PROPANOL
Formula: C3H8O
Exact mass: 60.05751
Instrument type: EI-MS
m/z	relative intensity
15	34
19	29
26	14
27	86
29	63
31	35
38	14
39	56
41	72
42	36
43	158
44	44
45	999
46	26
57	11
59	39
