Mass spectrum: 2-(PARA-NITROPHENYL)-HEPTAMETHYLTRISILANE; EI-MS
Formula: C13H25NO2Si3
Exact mass: 311.11931
Instrument type: EI-MS
m/z	relative intensity
40	86
56	42
73	999
74	87
75	50
117	35
119	63
121	30
131	38
133	53
134	109
135	30
147	78
148	38
149	43
162	28
164	66
177	97
179	160
180	63
192	76
193	81
222	89
223	42
238	30
265	60
296	38
297	11
311	32
312	10
