Mass spectrum: GERANYL ISOVALERATE; EI-MS
Name: ISOVALERIC ACID TRANS-3,7-DIMETHYL-2,6-OCTADIEN-1-OL ESTER
Formula: C15H26O2
Exact mass: 238.19328
Instrument type: EI-MS
m/z	relative intensity
41	270
43	68
57	470
58	27
68	708
69	999
80	357
85	592
92	166
93	504
107	106
108	50
121	316
123	50
136	273
137	60
154	40
