Mass spectrum: CATECHOL; EI-MS
Formula: C6H6O2
Exact mass: 110.03678
Instrument type: EI-MS
m/z	relative intensity
38	110
39	120
40	19
41	2
42	20
46	20
49	22
50	10
51	102
52	150
53	148
54	4
55	92
61	21
62	57
63	22
64	385
65	30
66	22
77	2
79	20
80	19
81	143
82	4
91	20
92	108
109	35
110	999
111	64
112	35
