Mass spectrum: BETA-CHLORO-N-BUTYRIC ACID METHYL ESTER; EI-MS
Formula: C5H9ClO2
Exact mass: 136.02911
Instrument type: EI-MS
m/z	relative intensity
42	216
51	56
58	88
59	999
63	104
69	176
71	56
72	8
77	448
79	152
85	16
100	9
101	992
105	248
107	88
