Mass spectrum: 5-ETHYL-4-PROPYLTHIAZOLE; EI-MS
Formula: C8H13NS
Exact mass: 155.07687
Instrument type: EI-MS
m/z	relative intensity
26	43
27	298
29	109
37	1
38	33
39	306
40	52
41	40
42	73
43	471
45	322
46	2
47	39
49	19
50	27
51	7
52	40
53	97
54	28
55	13
56	27
58	80
59	156
60	2
61	20
62	16
63	28
64	1
65	154
66	31
67	46
68	3
69	125
70	61
71	500
72	4
73	55
74	13
75	14
76	2
77	92
78	26
79	55
80	2
81	19
82	26
83	25
84	5
85	90
86	18
87	11
91	2
92	15
93	17
94	18
95	1
96	13
97	76
98	225
99	21
100	28
101	10
103	11
104	1
105	18
107	11
109	10
110	1
111	38
112	209
113	44
114	3
115	10
122	11
124	36
125	5
126	800
127	999
128	105
129	5
138	28
139	13
140	282
141	4
142	19
148	11
152	14
153	1
154	125
155	298
156	46
157	2
158	10
