Mass spectrum: 1-CHLORO-3-TRIMETHYLSILYL-2-PROPANONE; EI-MS
Formula: C6H13ClOSi
Exact mass: 164.04242
Instrument type: EI-MS
m/z	relative intensity
72	40
73	220
74	27
75	35
93	454
94	40
95	999
96	74
97	317
113	93
115	499
116	56
117	25
149	680
150	72
151	247
152	26
164	305
165	38
166	115
