Mass spectrum: ETHYL 3-CHLOROBENZOATE; EI-MS
Formula: C9H9ClO2
Exact mass: 184.02911
Instrument type: EI-MS
m/z	relative intensity
26	19
27	98
29	123
38	2
39	15
43	18
45	80
50	15
51	69
61	13
63	10
65	2
73	18
74	83
75	340
76	10
77	38
84	11
85	37
87	1
104	17
105	12
110	14
111	43
112	47
113	140
114	12
139	999
140	127
141	338
142	40
149	3
156	450
157	38
158	150
159	1
166	33
169	30
183	12
184	30
185	34
186	100
