Mass spectrum: ISOPROPYL ALCOHOL(2-D); EI-MS
Formula: C3H8O
Exact mass: 60.05751
Instrument type: EI-MS
m/z	relative intensity
15	25
19	26
20	21
27	39
28	81
29	31
30	25
31	24
32	11
39	22
40	17
41	18
42	40
43	62
44	71
45	32
46	999
47	19
59	16
