Mass spectrum: METHYL ACETOACETATE; EI-MS
Formula: C5H8O3
Exact mass: 116.04734
Instrument type: EI-MS
m/z	relative intensity
42	99
43	999
44	46
57	26
58	17
59	110
69	66
74	97
84	50
85	92
86	13
88	30
101	31
116	55
