Mass spectrum: ISOBUTYL PHENYLACETATE; EI-MS
Name: PHENYLACETIC ACID ISOBUTYL ESTER
Formula: C12H16O2
Exact mass: 192.11503
Instrument type: EI-MS
m/z	relative intensity
27	53
28	30
29	277
39	104
41	349
42	19
43	51
51	31
55	22
56	63
57	691
58	31
62	10
63	38
65	146
71	22
89	36
90	31
91	999
92	300
93	20
119	81
136	321
137	111
138	10
192	28
