Mass spectrum: 6-HYDROXYFLAVANONE HYDROGENEPHTHALATE; EI-MS
Name: 4-OXO-2-PHENYLCHROMAN-6-YL HYDROGEN PHTHALATE
Formula: C23H16O6
Exact mass: 388.09469
Instrument type: EI-MS
m/z	relative intensity
32	36
39	34
50	38
51	11
52	156
53	68
54	34
55	3
63	34
65	13
69	29
74	1
76	14
77	106
78	69
79	4
80	125
81	20
82	48
91	2
101	49
102	21
103	110
104	11
105	17
107	18
108	156
109	2
129	20
131	19
135	29
136	999
137	116
138	10
149	40
162	1
163	147
164	12
223	16
239	12
240	509
241	79
