Mass spectrum: 2-TERT-BUTYLMERCAPTO-4-TERT-BUTYLPYRIDINE; EI-MS
Formula: C13H21NS
Exact mass: 223.13947
Instrument type: EI-MS
m/z	relative intensity
29	160
39	160
41	330
55	6
56	90
57	170
152	280
167	999
168	130
169	60
223	40
