Mass spectrum: 2-CYCLOHEXYLCYCLOHEXANONE; EI-MS
Formula: C12H20O
Exact mass: 180.15142
Instrument type: EI-MS
m/z	relative intensity
27	75
29	61
39	98
41	240
42	37
43	22
53	46
54	44
55	152
56	12
65	15
67	129
68	26
69	21
70	136
77	17
79	36
80	25
81	85
82	13
83	116
91	12
95	23
97	56
98	999
99	90
109	13
123	16
137	14
