Mass spectrum: 2,4-DIMETHYL-3-PENTANONE; EI-MS
Formula: C7H14O
Exact mass: 114.10447
Instrument type: EI-MS
m/z	relative intensity
15	16
18	18
26	17
27	208
28	25
29	14
39	130
40	16
41	253
42	75
43	999
44	41
55	18
56	10
70	68
71	349
72	12
114	54
