Mass spectrum: DIISOPROPYL PHTHALATE; EI-MS
Name: PHTHALIC ACID DIISOPROPYL ESTER
Formula: C14H18O4
Exact mass: 250.12051
Instrument type: EI-MS
m/z	relative intensity
15	20
27	80
39	59
41	111
42	24
43	185
45	22
50	46
51	16
59	48
65	73
66	19
75	13
76	92
77	30
93	49
104	79
105	74
121	38
122	71
123	11
149	999
150	120
151	14
167	41
191	46
192	55
209	70
251	18
