Mass spectrum: ALLYLBENZYLDIMETHYLSILANE; EI-MS
Formula: C12H18Si
Exact mass: 190.11778
Instrument type: EI-MS
m/z	relative intensity
41	31
44	97
45	58
59	163
65	31
71	51
91	54
99	231
100	26
105	28
107	24
119	24
121	363
122	50
133	38
148	27
149	999
150	152
151	45
190	76
