Mass spectrum: 1,3-DIBROMOBENZENE; EI-MS
Formula: C6H4Br2
Exact mass: 233.86798
Instrument type: EI-MS
m/z	relative intensity
49	111
50	741
51	70
73	148
74	526
75	563
76	444
77	124
78	96
79	87
81	125
117	70
118	74
155	578
156	77
157	619
234	628
236	999
237	73
238	507
