Mass spectrum: 2-PHENYL IMIDAZOLINE; EI-MS
Formula: C9H10N2
Exact mass: 146.0844
Instrument type: EI-MS
m/z	relative intensity
147	140
146	780
145	500
144	310
118	270
117	999
116	130
104	260
89	230
87	200
77	470
64	40
62	80
51	220
42	100
