Mass spectrum: 5-BUTYL-2-METHYLPYRIDINE; EI-MS
Formula: C10H15N
Exact mass: 149.12045
Instrument type: EI-MS
m/z	relative intensity
39	39
41	27
43	14
44	6
51	27
52	18
53	29
63	1
65	37
66	12
77	134
78	4
79	95
80	12
91	23
92	9
93	23
104	10
105	14
106	999
107	157
108	12
118	16
120	4
121	25
134	20
149	348
150	41
