Mass spectrum: ETHYL 4-NITROPHENYLACETATE; EI-MS
Formula: C10H11NO4
Exact mass: 209.06881
Instrument type: EI-MS
m/z	relative intensity
27	60
28	15
29	678
30	160
38	12
39	60
45	12
51	58
52	22
62	28
63	125
64	50
65	10
73	12
77	68
78	230
79	48
89	385
90	453
91	102
106	250
107	190
108	15
119	62
120	222
121	38
135	27
136	800
137	999
138	78
163	12
164	125
165	42
181	68
193	26
209	435
210	78
