Mass spectrum: 1,4-BIS(TRIMETHYLSILOXY)BUTANE; EI-MS
Formula: C10H26O2Si2
Exact mass: 234.14713
Instrument type: EI-MS
m/z	relative intensity
45	61
47	29
55	142
59	57
61	25
66	73
72	21
73	487
74	43
75	128
81	41
100	105
101	39
102	132
112	460
113	53
116	22
131	40
133	51
147	999
148	161
149	84
177	112
178	22
219	29
234	1
