Mass spectrum: CARBON TETRACHLORIDE; EI-MS
Formula: CCl4
Exact mass: 151.87541
Instrument type: EI-MS
m/z	relative intensity
12	18
35	109
37	33
47	208
49	71
82	258
83	30
84	169
86	24
117	999
119	945
121	303
123	32
