Mass spectrum: PHENANTHRENE; EI-MS
Formula: C14H10
Exact mass: 178.07825
Instrument type: EI-MS
m/z	relative intensity
44	17
50	24
51	30
62	31
63	127
74	36
75	141
76	463
77	24
86	10
87	57
88	277
89	360
98	10
99	10
139	13
150	41
151	64
152	81
168	11
174	17
175	26
176	184
177	121
178	999
179	151
