Mass spectrum: 5-HYDROXY-2-PENTANONE; EI-MS
Name: 3-ACETYLPROPANOL
Formula: C5H10O2
Exact mass: 102.06808
Instrument type: EI-MS
m/z	relative intensity
15	45
17	40
18	172
26	33
27	132
28	73
29	78
31	21
37	17
38	31
39	302
40	31
41	207
42	107
43	999
44	39
50	34
51	37
52	20
53	111
54	128
55	137
56	26
58	39
68	18
69	78
83	172
84	301
85	33
