Mass spectrum: METHYL PARA HYDROXY BENZOATE; EI-MS
Formula: C8H8O3
Exact mass: 152.04734
Instrument type: EI-MS
m/z	relative intensity
15	24
38	16
39	98
53	16
63	27
64	17
65	163
66	11
77	12
92	12
93	261
94	18
121	999
122	83
151	16
152	314
153	26
