Mass spectrum: DIMETHYL OXOMALONATE OXIME; EI-MS
Formula: C5H7NO5
Exact mass: 161.03242
Instrument type: EI-MS
m/z	relative intensity
15	999
27	101
28	65
29	144
30	84
31	149
32	20
41	38
42	62
43	22
44	96
45	66
54	182
55	20
59	571
60	14
69	25
70	65
71	17
86	30
101	80
102	137
129	743
130	101
131	10
161	81
