Mass spectrum: 9-FLUORENECARBOXYLIC ACID METHYL ESTER; EI-MS
Formula: C15H12O2
Exact mass: 224.08373
Instrument type: EI-MS
m/z	relative intensity
50	72
51	60
61	22
62	6
63	152
64	41
67	36
70	17
75	49
76	24
79	24
81	5
82	274
83	288
85	22
86	4
87	69
88	22
89	85
92	4
98	24
105	41
110	22
111	2
113	47
115	113
128	30
137	4
138	22
139	202
140	22
162	6
163	390
164	337
165	999
166	37
167	349
168	47
