Mass spectrum: METHYL TETRA-O-METHYL-ALPHA-D-MANNOPYRANOSIDE; EI-MS
Formula: C11H22O6
Exact mass: 250.14164
Instrument type: EI-MS
m/z	relative intensity
27	18
29	41
31	19
33	1
39	10
41	46
42	10
43	4
44	20
45	218
47	14
53	1
55	20
57	19
59	40
69	1
71	121
72	17
73	108
74	3
75	675
76	21
85	25
88	999
89	143
99	12
101	535
102	5
111	20
117	19
127	20
131	2
145	32
149	298
150	19
176	6
187	29
219	23
