Mass spectrum: ACRYLONITRILE; EI-MS
Formula: C3H3N
Exact mass: 53.02655
Instrument type: EI-MS
m/z	relative intensity
12	12
24	17
25	64
26	840
27	133
28	40
36	19
37	42
38	57
39	20
50	83
51	331
52	812
53	999
54	54
