Mass spectrum: 6,8-DIMETHYL-3',4'-METHYLENEDIOXYFLAVONOL; EI-MS
Name: 3-HYDROXY-6,8-DIMETHYL-2-(3,4-METHYLENEDIOXYPHENYL)-4H-CHROMEN-4-ONE
Formula: C18H14O5
Exact mass: 310.08412
Instrument type: EI-MS
m/z	relative intensity
63	23
65	47
76	29
77	5
91	81
119	38
120	38
126	5
133	21
140	111
149	142
162	5
224	52
253	36
281	42
282	8
309	340
310	999
311	289
312	29
