Mass spectrum: DIISOAMYL ETHER; EI-MS
Formula: C10H22O
Exact mass: 158.16707
Instrument type: EI-MS
m/z	relative intensity
29	115
41	231
43	938
55	20
69	461
70	999
71	701
101	24
158	22
