Mass spectrum: ALPHA-TERPINYL FORMATE; EI-MS
Name: P-MENTH-1-EN-8-YL FORMATE
Formula: C11H18O2
Exact mass: 182.13068
Instrument type: EI-MS
m/z	relative intensity
18	20
27	61
28	15
29	73
31	40
39	133
40	26
41	254
42	18
43	191
51	27
52	15
53	121
54	20
55	104
59	260
65	35
66	16
67	181
68	126
69	111
71	28
77	124
78	21
79	159
80	61
81	241
82	18
91	108
92	118
93	717
94	90
95	156
96	14
105	41
106	12
107	107
108	48
119	12
121	999
122	96
136	555
137	141
138	12
139	21
