Mass spectrum: 1-(1-OXO-2,4-DECADIENYL)PYROLIDINE; EI-MS
Formula: C14H23NO
Exact mass: 221.17796
Instrument type: EI-MS
m/z	relative intensity
27	160
28	103
29	229
39	166
40	50
41	396
42	73
43	154
53	275
55	465
56	148
57	50
65	97
66	246
67	328
68	58
69	280
70	475
71	68
77	120
79	173
80	52
81	980
82	110
83	98
94	78
95	213
96	66
98	263
107	66
108	67
109	58
113	103
122	67
124	50
136	80
137	42
150	999
151	445
152	76
164	192
165	50
178	58
192	62
220	30
221	293
222	80
