Mass spectrum: 4-(4-ACETOXYPHENOXY)BENZOIC ACID; EI-MS
Formula: C15H12O5
Exact mass: 272.06847
Instrument type: EI-MS
m/z	relative intensity
28	30
39	14
42	9
43	5
44	3
50	13
51	13
53	1
54	2
63	13
64	6
65	5
75	11
76	17
81	16
92	1
93	6
104	11
105	13
109	5
121	8
127	11
128	19
129	2
139	2
156	2
157	28
158	0
184	16
185	16
213	61
230	999
231	141
232	11
255	2
272	42
