Mass spectrum: 2,4,N,N-TETRAMETHYLANILINE; EI-MS
Formula: C10H15N
Exact mass: 149.12045
Instrument type: EI-MS
m/z	relative intensity
28	100
51	107
77	301
78	11
104	120
106	512
134	999
149	349
