Mass spectrum: ETHYL2-METHOXY-6(1-PENTDECENYL)BENZOATE; EI-MS
Formula: C25H40O3
Exact mass: 388.29775
Instrument type: EI-MS
m/z	relative intensity
40	19
43	8
44	1
45	9
55	9
56	3
57	15
67	7
69	15
70	4
71	9
81	12
83	14
85	4
91	3
95	8
97	10
121	20
122	9
123	4
128	4
129	10
130	4
131	3
132	12
133	4
135	5
145	8
146	15
147	57
148	54
149	16
150	6
155	3
156	9
157	4
158	4
159	19
160	20
161	59
162	10
163	40
164	20
165	14
166	5
170	3
171	4
172	3
173	31
177	95
178	16
179	6
183	4
185	6
186	4
187	126
188	53
189	19
190	4
191	8
192	61
193	15
194	129
195	16
197	0
199	9
200	3
201	54
202	14
203	5
205	346
206	74
207	15
211	5
213	5
215	32
216	8
219	45
220	29
221	5
229	1
230	4
233	14
234	5
243	3
247	8
248	3
261	11
262	3
275	9
276	3
289	6
303	4
313	4
315	12
316	4
317	5
324	3
327	3
331	5
340	4
341	9
342	37
343	86
344	22
345	6
359	122
360	32
361	5
387	4
390	9
