Mass spectrum: (1R*,2S*)-1-(P-METHOXYPHENYL)-2-(1-PYRROLIDINYL)BUTANOL; EI-MS
Formula: C15H23NO2
Exact mass: 249.17288
Instrument type: EI-MS
m/z	relative intensity
96	17
111	242
112	999
113	16
135	75
136	69
231	25
249	0
