Mass spectrum: METHACRYLIC ACID METHYL ESTER; EI-MS
Formula: C5H8O2
Exact mass: 100.05243
Instrument type: EI-MS
m/z	relative intensity
38	89
39	162
40	197
41	999
42	27
43	139
45	65
53	3
55	46
56	38
58	77
59	8
69	655
70	34
82	23
85	5
99	89
100	360
101	23
