Mass spectrum: (Z)-3,7-DIMETHYL-2,6-OCTADIENAL; EI-MS
Name: NERAL
Formula: C10H16O
Exact mass: 152.12012
Instrument type: EI-MS
m/z	relative intensity
41	224
42	10
43	75
55	4
56	45
57	17
58	12
59	31
67	79
68	51
69	999
70	12
71	39
72	23
79	48
80	11
81	187
82	205
83	108
84	53
85	33
91	21
92	38
93	5
94	567
95	191
96	83
97	6
107	10
108	29
109	142
110	3
119	37
123	103
124	16
134	4
137	96
152	157
153	12
