Mass spectrum: 2-HEXANOL; EI-MS
Formula: C6H14O
Exact mass: 102.10447
Instrument type: EI-MS
m/z	relative intensity
36	10
41	92
42	10
43	43
44	26
45	999
46	26
69	30
83	16
87	62
