Mass spectrum: 2-BUTYRYLTHIOPHENE; EI-MS
Formula: C8H10OS
Exact mass: 154.04524
Instrument type: EI-MS
m/z	relative intensity
27	261
28	17
29	56
39	840
40	54
41	282
42	76
43	359
44	18
45	105
53	57
55	179
57	55
58	72
62	59
69	48
70	11
71	48
82	34
83	313
84	131
85	50
97	106
98	10
111	999
112	254
113	225
114	19
125	10
126	321
127	54
128	36
139	103
153	10
154	451
155	74
156	34
