Mass spectrum: METHYL PROPIONATE; EI-MS
Name: PROPIONIC ACID METHYL ESTER
Formula: C4H8O2
Exact mass: 88.05243
Instrument type: EI-MS
m/z	relative intensity
15	126
18	11
26	32
27	136
28	79
29	659
30	22
31	38
45	29
55	40
56	31
57	999
58	35
59	300
60	11
87	22
88	289
89	24
