Mass spectrum: ISOPROPYLBENZENE; EI-MS
Name: CUMENE
Formula: C9H12
Exact mass: 120.0939
Instrument type: EI-MS
m/z	relative intensity
15	13
27	48
39	84
41	34
50	39
51	122
52	25
53	14
62	11
63	30
65	25
74	13
75	12
76	12
77	149
78	72
79	122
91	62
102	11
103	78
104	22
105	999
106	83
120	240
121	19
