Mass spectrum: 2,3-DIMETHYLPHENOL; EI-MS
Formula: C8H10O
Exact mass: 122.07316
Instrument type: EI-MS
m/z	relative intensity
51	129
52	49
53	83
55	32
60	48
61	29
62	30
63	51
64	23
65	77
66	22
76	52
77	339
78	146
79	227
80	22
90	23
91	191
92	29
93	57
94	49
102	21
103	70
104	41
105	25
106	150
107	999
108	78
120	350
122	664
123	64
