Mass spectrum: 2-HEPTANOYLTHIOPHENE; EI-MS
Formula: C11H16OS
Exact mass: 196.09219
Instrument type: EI-MS
m/z	relative intensity
28	11
29	22
39	28
41	40
43	70
55	51
56	10
57	10
69	10
83	29
84	49
85	10
97	30
98	10
111	785
112	58
113	58
126	999
127	107
128	68
139	139
140	19
153	10
163	10
196	59
