Mass spectrum: N,N-DIETHYLNITROSOAMINE; EI-MS
Formula: C4H10N2O
Exact mass: 102.07931
Instrument type: EI-MS
m/z	relative intensity
54	34
55	55
56	999
57	997
70	38
71	57
85	50
87	33
102	515
103	28
