Mass spectrum: ETHANETHIOL; EI-MS
Formula: C2H6S
Exact mass: 62.01902
Instrument type: EI-MS
m/z	relative intensity
14	13
15	28
25	23
26	255
27	903
28	424
29	999
30	16
32	57
33	114
34	222
35	136
44	15
45	292
46	163
47	862
48	18
49	28
56	14
57	92
58	133
59	92
60	12
61	146
62	986
63	42
64	37
