Mass spectrum: 1,1-DICHLORO-3-METHYL-1-HEXENE; EI-MS
Formula: C7H12Cl2
Exact mass: 166.03161
Instrument type: EI-MS
m/z	relative intensity
41	192
42	123
43	238
51	100
53	49
55	213
56	39
65	38
70	999
71	61
75	40
87	261
89	159
91	27
95	28
109	158
110	115
111	104
112	76
123	672
124	65
125	444
126	36
127	75
166	125
168	80
