Mass spectrum: META-AMINOBENZOIC ACID ETHYL ESTER; EI-MS
Name: ETHYL META-AMINOBENZOATE
Formula: C9H11NO2
Exact mass: 165.07898
Instrument type: EI-MS
m/z	relative intensity
27	61
28	45
29	63
38	27
39	149
40	14
41	45
42	14
43	14
46	33
50	12
51	12
52	34
60	41
62	15
63	61
64	61
65	424
66	71
91	74
92	785
93	370
94	26
109	17
119	20
120	999
121	164
137	310
138	23
150	43
165	805
166	80
