Mass spectrum: 1-TERPINEOL; EI-MS
Name: 1-METHYL-4-(1-METHYLETHYL)-3-CYCLOHEXEN-1-OL
Formula: C10H18O
Exact mass: 154.13577
Instrument type: EI-MS
m/z	relative intensity
58	675
69	475
71	226
80	403
81	999
93	537
96	523
107	407
111	333
121	505
125	166
136	453
139	146
154	70
