Mass spectrum: P-ANISALDEHYDE DIMETHYLACETAL; EI-MS
Formula: C10H14O3
Exact mass: 182.09429
Instrument type: EI-MS
m/z	relative intensity
47	12
50	24
51	46
53	10
59	16
63	32
64	35
65	41
74	12
75	53
76	19
77	108
78	28
79	15
91	34
92	54
93	10
107	39
108	50
121	14
135	348
136	190
137	19
151	999
152	101
166	20
182	57
