Mass spectrum: O-METHYLBENZALDEHYDE; EI-MS
Formula: C8H8O
Exact mass: 120.05751
Instrument type: EI-MS
m/z	relative intensity
27	18
29	37
37	14
38	31
39	162
41	17
50	55
51	73
52	16
53	12
60	12
61	22
62	56
63	154
64	31
65	243
66	15
74	22
75	12
77	15
86	14
87	11
89	81
90	44
91	999
92	111
119	860
120	890
121	67
