Mass spectrum: 3,6-NONADIENOL; EI-MS
Formula: C9H16O
Exact mass: 140.12012
Instrument type: EI-MS
m/z	relative intensity
41	341
42	29
43	77
53	88
55	447
56	38
57	41
65	27
66	44
67	999
68	279
69	71
70	71
71	27
72	44
77	115
78	29
79	537
81	294
82	41
83	59
91	159
92	29
93	721
94	115
95	94
96	150
97	59
98	118
107	177
109	59
111	27
112	27
122	88
