Mass spectrum: DIBUTYL AMINE; EI-MS
Formula: C8H19N
Exact mass: 129.15175
Instrument type: EI-MS
m/z	relative intensity
15	11
27	81
28	116
29	225
30	550
39	44
41	204
42	76
43	56
44	672
45	18
55	39
56	64
57	190
58	16
70	35
72	27
84	100
86	999
87	60
99	16
100	12
112	17
128	17
129	96
130	20
