Mass spectrum: (3R*)-3-((1R*)-1-METHYL-2-BUTENYL)CYCLOPENTANONE; EI-MS
Formula: C10H16O
Exact mass: 152.12012
Instrument type: EI-MS
m/z	relative intensity
41	37
43	15
51	12
53	4
54	21
55	264
56	23
65	1
67	78
68	52
69	999
70	9
77	15
79	22
80	19
81	6
82	45
83	280
84	55
93	1
94	17
95	45
96	30
97	2
109	28
110	70
123	19
152	14
153	15
