Mass spectrum: 3-HYDROXY-2-NAPHTHOIC ACID; EI-MS
Formula: C11H8O3
Exact mass: 188.04734
Instrument type: EI-MS
m/z	relative intensity
27	12
28	13
29	10
39	57
44	48
45	38
50	42
51	49
53	31
56	18
57	133
58	13
61	23
62	61
63	114
64	48
65	43
71	267
72	10
76	21
77	38
85	142
86	72
87	80
88	41
94	21
103	38
113	115
114	436
115	169
116	30
141	13
142	739
143	88
144	83
170	999
171	186
172	18
188	598
189	64
