Mass spectrum: 3-ETHOXY-2-TRIMETHYLSILOXYPROPENE; EI-MS
Formula: C8H18O2Si
Exact mass: 174.10761
Instrument type: EI-MS
m/z	relative intensity
18	76
32	76
73	208
75	185
115	545
116	62
117	35
130	999
131	149
132	45
145	88
147	38
174	179
175	23
