Mass spectrum: 2-(3-(4-HYDROXYBENZOYL)PHENYL)PROPIONICACID METHYL ESTER; EI-MS
Formula: C17H16O4
Exact mass: 284.10486
Instrument type: EI-MS
m/z	relative intensity
40	7
41	13
44	25
55	26
56	14
71	9
73	14
81	8
82	4
93	36
98	2
103	36
104	12
105	13
119	8
120	11
121	999
122	70
123	9
131	51
132	4
135	100
141	5
142	5
147	4
149	35
163	5
165	60
167	7
168	6
169	4
181	3
191	102
192	9
193	20
197	79
198	12
207	14
208	8
209	5
210	33
211	13
221	2
223	12
224	49
225	646
226	117
227	10
235	6
239	44
240	14
252	14
253	10
255	9
267	5
270	3
281	4
282	3
283	7
284	499
285	106
286	10
