Mass spectrum: 1,3,5-TRIMETHYLBENZENE; EI-MS
Name: MESITYLENE
Formula: C9H12
Exact mass: 120.0939
Instrument type: EI-MS
m/z	relative intensity
77	22
79	30
91	28
92	10
103	17
104	13
105	939
106	82
117	11
119	124
120	999
121	98
