Mass spectrum: ISOOCTYL ISODECYL PHTHALATE; EI-MS
Formula: C26H42O4
Exact mass: 418.30831
Instrument type: EI-MS
m/z	relative intensity
43	176
54	82
55	71
56	139
65	9
67	13
68	13
69	5
70	52
71	62
76	18
77	2
82	17
83	34
84	28
85	3
93	11
97	14
99	17
101	1
104	17
105	30
111	12
112	3
113	14
121	11
122	11
123	4
140	16
142	9
149	999
150	9
151	12
167	29
261	38
262	1
279	157
280	33
289	16
307	10
308	20
390	9
418	11
