Mass spectrum: N-PIPEROYL-N-ETHYLANILINE; EI-MS
Name: N-ETHYL-5-(3,4-METHYLENEDIOXYPHENYL)-N-PHENYL-2,4-PENTADIENAMIDE
Formula: C20H19NO3
Exact mass: 321.13649
Instrument type: EI-MS
m/z	relative intensity
201	999
202	125
321	65
