Mass spectrum: FLUOREN; EI-MS
Name: 2-21-METHYLENBIPHENYL
Formula: C13H10
Exact mass: 166.07825
Instrument type: EI-MS
m/z	relative intensity
165	419
166	999
167	162
