Mass spectrum: ETHYLENE GLYCOL DIBUTYRATE; EI-MS
Formula: C10H18O4
Exact mass: 202.12051
Instrument type: EI-MS
m/z	relative intensity
15	13
27	94
28	22
29	16
39	33
41	101
42	38
43	483
44	16
45	12
55	19
70	27
71	999
72	56
86	54
87	12
89	10
99	10
101	14
103	11
114	44
115	122
142	18
144	18
159	16
