Mass spectrum: 3,6-DIOXAOCTYL ACETATE; EI-MS
Name: ACETIC ACID 3,6-DIOXAOCTYL ESTER
Formula: C8H16O4
Exact mass: 176.10486
Instrument type: EI-MS
m/z	relative intensity
15	50
19	14
27	58
28	116
29	155
31	414
41	67
42	42
43	999
44	170
45	558
58	21
59	480
60	32
61	58
72	425
73	205
74	30
75	14
86	21
87	602
88	30
89	40
101	24
103	31
116	11
117	19
