Mass spectrum: DIISOBUTYL ETHER; EI-MS
Formula: C8H18O
Exact mass: 130.13577
Instrument type: EI-MS
m/z	relative intensity
28	12
38	12
39	53
51	10
52	12
53	21
55	17
65	1
66	42
67	999
68	42
69	2
83	12
97	121
98	11
130	58
