Mass spectrum: METHYL ISOBUTYRATE; EI-MS
Formula: C5H10O2
Exact mass: 102.06808
Instrument type: EI-MS
m/z	relative intensity
27	52
41	141
42	114
43	999
44	32
55	32
59	196
61	50
70	12
71	491
72	22
74	57
87	235
88	12
101	10
102	203
103	15
