Mass spectrum: ACETIC ACID PROPYL ESTER; EI-MS
Name: PROPYL ACETATE
Formula: C5H10O2
Exact mass: 102.06808
Instrument type: EI-MS
m/z	relative intensity
15	39
27	51
28	15
29	16
31	39
39	22
41	68
42	93
43	999
44	23
57	12
59	48
61	273
72	14
73	131
