Mass spectrum: PARA-MENTA-1(7),8-DIENE; EI-MS
Name: 1-ISOPROPENYL-4-METHYLENECYCLOHEXANE
Formula: C10H16
Exact mass: 136.1252
Instrument type: EI-MS
m/z	relative intensity
42	247
43	71
53	114
55	79
67	164
68	103
69	212
77	119
79	353
80	166
81	82
91	142
92	109
93	999
94	163
106	111
121	98
136	246
