Mass spectrum: 1-(PARA-NITROPHENYL)HEPTAMETHYLTRISILANE; EI-MS
Formula: C13H25NO2Si3
Exact mass: 311.11931
Instrument type: EI-MS
m/z	relative intensity
40	75
56	57
73	999
74	88
75	47
117	43
119	92
131	383
132	68
133	96
134	193
135	46
147	116
148	49
162	45
164	110
177	48
180	75
192	41
193	108
222	59
223	59
238	81
296	44
311	140
312	44
