Mass spectrum: 2,4-DIMETHYLBENZOIC ACID TRIMETHYLSILYL ESTER; EI-MS
Formula: C12H18O2Si
Exact mass: 222.10761
Instrument type: EI-MS
m/z	relative intensity
45	135
73	109
77	135
79	14
96	97
103	92
104	95
105	22
132	242
133	999
163	394
207	48
208	112
222	121
