Mass spectrum: METHYL 2-HYDROXYUNDEC-10-ENOATE; EI-MS
Formula: C12H22O3
Exact mass: 214.15689
Instrument type: EI-MS
m/z	relative intensity
15	99
28	198
29	344
41	88
42	26
43	392
55	879
56	4
57	407
67	610
68	31
69	68
70	33
81	845
82	51
83	21
90	605
91	45
95	999
96	7
110	135
113	135
122	68
127	8
136	156
137	334
155	428
156	6
164	47
171	16
182	63
186	3
196	31
197	10
214	52
215	10
