Mass spectrum: 1,1,2,2,3,3-HEXAMETHYL-4,5-DIPHENYL-1,2,3-TRISILACYCLOPENT-4-ENE; EI-MS
Formula: C20H28Si3
Exact mass: 352.14988
Instrument type: EI-MS
m/z	relative intensity
40	48
44	28
45	81
58	14
59	118
60	11
73	999
74	66
75	33
76	10
77	10
85	18
99	41
100	18
101	51
102	13
105	59
107	12
113	15
114	12
115	58
116	232
117	63
118	23
119	13
129	60
130	12
131	49
133	14
135	256
136	30
140	12
143	11
145	29
147	14
157	15
159	90
160	19
161	15
163	72
164	13
165	12
174	56
175	27
176	26
177	48
178	258
179	52
180	18
187	15
191	25
193	24
197	56
198	11
202	50
203	15
204	11
207	14
217	80
218	19
219	14
221	30
233	14
263	24
264	26
265	12
277	25
278	18
279	128
280	39
281	13
293	39
294	15
295	59
296	17
310	20
337	52
338	19
352	316
353	127
354	55
355	15
