Mass spectrum: CYCLOPENTANONE; EI-MS
Formula: C5H8O
Exact mass: 84.05751
Instrument type: EI-MS
m/z	relative intensity
27	28
28	358
29	31
39	2
40	18
41	258
42	60
43	3
55	999
56	258
57	18
83	2
84	524
85	33
