Mass spectrum: 2-(TRIMETHYLSILYL)OXY-TETRADECANOIC ACID TRIMETHYLSILYL ESTER; EI-MS
Formula: C20H44O3Si2
Exact mass: 388.2829
Instrument type: EI-MS
m/z	relative intensity
43	487
45	116
47	107
55	21
56	147
57	294
59	120
67	15
69	406
70	107
73	999
77	17
82	102
83	415
91	129
93	10
95	116
97	348
103	370
111	26
115	102
125	102
129	165
132	10
147	437
148	120
149	165
265	10
271	683
272	165
