Mass spectrum: PYRAZOLE; EI-MS
Formula: C3H4N2
Exact mass: 68.03745
Instrument type: EI-MS
m/z	relative intensity
26	20
27	31
28	175
29	2
37	33
38	79
39	121
40	17
41	332
42	46
43	12
66	1
67	101
68	999
69	42
70	3
