Mass spectrum: 2-METHYLTHIOBENZOIC ACID METHYL ESTER; EI-MS
Formula: C9H10O2S
Exact mass: 182.04015
Instrument type: EI-MS
m/z	relative intensity
39	75
45	506
50	139
51	13
58	12
59	113
63	113
69	19
74	75
75	75
76	113
77	30
78	88
79	113
82	102
91	10
92	12
96	25
105	177
108	27
109	63
121	354
122	379
123	11
136	88
137	101
149	88
150	30
151	974
152	265
153	25
165	4
167	316
182	999
183	88
184	12
