Mass spectrum: DIMETHYL ADIPATE; EI-MS
Formula: C8H14O4
Exact mass: 174.08921
Instrument type: EI-MS
m/z	relative intensity
15	22
29	25
41	69
42	25
43	160
45	13
54	47
55	362
56	28
57	22
59	633
60	15
68	31
69	69
71	29
72	89
73	221
74	414
75	16
82	93
83	183
84	22
86	10
87	132
88	38
97	47
99	29
100	33
101	762
102	40
110	36
111	666
112	47
113	30
114	999
115	189
116	16
142	203
143	692
144	59
145	10
