Mass spectrum: 1,3-DICHLORO-2-TRIMETHYLSILOXYPROPENE; EI-MS
Formula: C6H12Cl2OSi
Exact mass: 198.00345
Instrument type: EI-MS
m/z	relative intensity
27	109
36	51
39	42
43	107
45	165
47	36
53	163
55	105
63	46
65	69
69	47
72	27
73	999
74	105
75	83
79	45
93	462
94	35
95	220
111	99
113	431
114	28
115	294
117	56
147	35
183	215
185	148
187	27
198	93
200	62
