Mass spectrum: ISOPROPENYLBENZENE; EI-MS
Name: ALPHA-METHYLSTYRENE
Formula: C9H10
Exact mass: 118.07825
Instrument type: EI-MS
m/z	relative intensity
27	36
28	30
38	18
39	130
40	17
41	21
50	77
51	197
52	44
53	16
57	25
57.5	60
58	97
62	25
63	72
65	62
74	32
75	29
76	35
77	261
78	372
79	30
89	39
90	17
91	199
92	20
102	52
103	559
104	47
115	266
116	60
117	795
118	999
119	97
