Mass spectrum: BUTYL ORTHO TOLUATE; EI-MS
Name: ORTHO TOLUIC ACID BUTYL ESTER
Formula: C12H16O2
Exact mass: 192.11503
Instrument type: EI-MS
m/z	relative intensity
27	84
29	252
39	145
41	270
51	37
55	29
56	76
57	163
63	48
64	11
65	276
77	31
79	12
89	59
90	151
91	678
92	63
93	21
118	999
119	921
120	76
135	35
136	648
137	161
192	110
193	13
