Mass spectrum: N-OCTADECANE; EI-MS
Formula: C18H38
Exact mass: 254.29735
Instrument type: EI-MS
m/z	relative intensity
41	277
42	88
43	845
44	49
54	16
55	159
56	137
57	999
58	43
67	12
68	13
69	66
70	75
71	502
72	28
82	14
83	36
84	37
85	249
86	15
97	21
98	22
99	69
112	14
113	32
126	10
127	20
141	13
254	12
