Mass spectrum: 3-METHYL-4,5-DIHYDROFURAN; EI-MS
Formula: C5H8O
Exact mass: 84.05751
Instrument type: EI-MS
m/z	relative intensity
26	47
27	269
28	58
29	38
32	19
39	338
41	321
43	8
44	49
51	49
53	199
54	12
55	999
56	162
57	62
69	12
83	427
84	867
85	52
