Mass spectrum: ISOPROPYL PYRUVATE; EI-MS
Formula: C6H10O3
Exact mass: 130.06299
Instrument type: EI-MS
m/z	relative intensity
14	12
15	66
27	120
29	23
39	57
41	212
42	45
43	999
44	33
45	16
59	13
71	16
87	21
