Mass spectrum: 2-OCTANONE; EI-MS
Name: METHYL HEXYL KETONE
Formula: C8H16O
Exact mass: 128.12012
Instrument type: EI-MS
m/z	relative intensity
15	56
26	10
27	135
28	3
29	107
39	91
40	16
41	19
42	36
43	907
44	23
45	2
53	16
55	46
56	17
57	5
58	999
59	201
67	11
68	2
69	16
70	33
71	173
72	3
85	63
86	19
95	10
99	1
113	43
128	112
129	15
