Mass spectrum: DI-ISOPROPYLMETHYLCHLOROSILANE; EI-MS
Formula: C7H17ClSi
Exact mass: 164.0788
Instrument type: EI-MS
m/z	relative intensity
42	27
43	43
58	19
59	25
63	64
65	49
67	15
75	24
78	48
79	177
80	30
81	52
85	15
93	999
94	81
95	359
96	27
97	11
105	23
107	10
121	332
122	36
123	111
124	11
129	12
164	70
165	10
166	25
