Mass spectrum: TRIETHYL PHOSPHATE; EI-MS
Formula: C6H15O4P
Exact mass: 182.0708
Instrument type: EI-MS
m/z	relative intensity
29	10
45	28
81	47
82	156
83	62
91	24
99	540
109	221
110	67
111	104
125	125
126	48
127	495
128	11
137	93
138	115
139	75
153	37
154	16
155	999
156	45
157	10
167	34
181	26
182	88
183	10
