Mass spectrum: 3-(4-HYDROXY-3-METHOXYPHENYL)PROP-2-ENOICACID; EI-MS
Name: FERULIC ACID
Formula: C10H10O4
Exact mass: 194.05791
Instrument type: EI-MS
m/z	relative intensity
53	8
55	28
65	8
67	1
69	16
77	96
78	28
79	1
89	28
91	16
95	28
105	4
107	72
119	12
123	16
133	156
134	2
135	116
145	24
148	16
149	2
150	188
151	44
161	20
177	7
179	188
180	8
193	48
194	999
195	108
