Mass spectrum: N-(2,2-DIDEUTERO-4-PHENYLBUTYRYL)PIPERIDIN-2-ONE; EI-MS
Formula: C15H19NO2
Exact mass: 245.14158
Instrument type: EI-MS
m/z	relative intensity
41	25
43	25
46	20
55	30
56	40
59	30
70	40
71	30
82	15
87	20
91	150
92	55
93	20
98	100
99	290
100	470
101	260
102	80
103	10
104	230
105	105
106	10
107	20
112	25
113	10
114	30
115	590
116	40
118	10
119	25
120	10
131	15
142	20
143	999
144	80
145	10
148	25
149	50
156	30
166	30
246	2
247	75
248	28
249	5
