Mass spectrum: ISOPROPYLISOBUTYLHYDRAZONE ISOBUTYRALDEHYDE; EI-MS
Name: ISOBUTYRALDEHYDE ISOBUTYLISOPROPYLHYDRAZONE
Formula: C11H24N2
Exact mass: 184.19395
Instrument type: EI-MS
m/z	relative intensity
28	54
29	94
30	152
31	0
39	42
41	174
42	53
43	23
44	49
53	6
54	9
55	5
56	75
57	82
58	38
68	1
69	12
70	130
71	17
82	1
83	9
84	6
85	6
98	1
99	706
100	53
111	3
112	0
113	78
114	8
125	8
127	1
141	999
142	79
143	5
169	11
170	12
183	6
184	185
185	33
