Mass spectrum: 2-TRIMETHYLSILYLOXY-4-QUINOLINECARBOXYLICACID TRIMETHYLSILYL ESTER; EI-MS
Formula: C16H23NO3Si2
Exact mass: 333.12165
Instrument type: EI-MS
m/z	relative intensity
45	20
72	11
73	704
74	64
75	66
77	15
93	15
95	6
97	2
115	3
116	4
117	5
128	7
129	2
130	2
131	7
133	21
134	2
135	2
139	6
140	12
143	4
144	4
145	5
146	2
147	82
148	16
149	15
152	99
158	10
160	1
169	2
170	12
172	11
173	6
174	2
184	2
185	2
186	37
187	8
188	6
189	1
190	7
198	9
199	2
200	34
201	81
202	37
203	10
204	4
207	2
213	2
214	14
215	464
216	557
217	112
218	38
219	5
228	2
229	7
230	11
231	45
232	15
233	3
234	3
242	13
243	12
244	77
245	16
246	153
247	30
248	9
256	2
258	17
259	24
260	53
261	18
262	5
272	13
273	8
274	49
275	16
276	7
277	1
286	2
287	1
288	26
289	22
290	18
291	5
299	6
300	1
301	1
302	17
303	9
304	10
305	3
316	7
317	32
318	999
319	409
320	160
321	27
322	4
331	17
332	486
333	465
334	136
335	45
336	7
