Mass spectrum: ACETALDEHYDE BUTYL ISOPENTYL ACETAL; EI-MS
Name: ACETALDEHYDE BUTYL ISOAMYL ACETAL
Formula: C11H24O2
Exact mass: 188.17763
Instrument type: EI-MS
m/z	relative intensity
15	32
26	25
27	280
29	36
30	11
31	161
39	166
41	60
42	150
43	929
44	104
45	66
46	18
53	26
54	10
55	27
56	207
57	593
58	36
59	1
61	13
69	21
70	124
71	999
72	64
83	19
85	30
99	2
100	15
101	640
102	34
103	2
115	384
116	25
117	11
173	15
174	16
