Mass spectrum: 3,7,7-TRIMETHYL-BICYCLO(4.1.0)HEPTAN-2-ONE; EI-MS
Formula: C10H16O
Exact mass: 152.12012
Instrument type: EI-MS
m/z	relative intensity
18	44
67	49
68	11
70	50
71	10
73	14
80	13
81	18
82	453
83	18
84	11
93	4
94	24
95	46
96	70
97	4
106	13
109	170
110	999
111	2
119	31
121	14
123	30
124	24
134	136
135	19
136	27
137	6
138	36
150	70
152	406
153	17
154	22
