Mass spectrum: 3-BROMOPROPENE; EI-MS
Name: ALLYL BROMIDE
Formula: C3H5Br
Exact mass: 119.95746
Instrument type: EI-MS
m/z	relative intensity
14	28
15	45
25	17
26	60
27	70
28	65
29	18
36	15
37	85
38	139
39	716
40	74
41	999
42	35
43	23
55	16
57	15
79	31
81	30
93	11
95	10
120	94
122	90
