Mass spectrum: 2-METHYL-3-TRIMETHYLSILOXYHEPTA-2,6-DIENE; EI-MS
Formula: C11H22OSi
Exact mass: 198.14399
Instrument type: EI-MS
m/z	relative intensity
43	42
45	124
47	36
55	33
59	56
61	39
67	503
73	999
74	90
75	547
76	42
77	34
91	993
92	91
93	65
127	55
130	48
141	102
142	36
155	114
157	211
158	36
183	291
184	50
198	421
199	75
