Mass spectrum: ETHYL 4-METHOXY-3,5-DIMETHYLBENZOATE; EI-MS
Formula: C12H16O3
Exact mass: 208.10994
Instrument type: EI-MS
m/z	relative intensity
27	28
29	33
39	27
40	1
41	13
43	21
51	23
52	1
53	14
63	17
65	38
74	1
77	60
78	14
79	49
91	12
92	20
103	32
104	11
105	13
106	11
119	19
120	33
121	2
135	29
136	14
149	29
163	999
164	140
165	64
180	151
181	2
193	74
207	10
208	606
209	83
