Mass spectrum: DIETHYL PROPYLMALONATE; EI-MS
Formula: C10H18O4
Exact mass: 202.12051
Instrument type: EI-MS
m/z	relative intensity
43	136
45	96
55	243
60	79
73	281
74	22
83	184
88	128
99	83
101	512
102	20
114	103
115	99
127	71
129	79
132	111
133	260
157	500
158	58
160	999
173	97
174	18
