Mass spectrum: METHYL CINNAMATE; EI-MS
Name: 3-PHENYL-2-PROPENOIC ACID METHYL ESTER
Formula: C10H10O2
Exact mass: 162.06808
Instrument type: EI-MS
m/z	relative intensity
47	14
77	10
102	45
103	20
104	42
116	15
117	34
121	2
130	156
131	999
132	101
133	2
144	23
160	32
161	352
162	88
163	95
