Mass spectrum: CYCLOHEPTANONE; EI-MS
Formula: C7H12O
Exact mass: 112.08882
Instrument type: EI-MS
m/z	relative intensity
15	17
26	24
27	232
28	191
29	116
39	220
40	55
41	664
42	411
43	176
51	13
53	36
54	32
55	999
56	514
57	54
58	21
67	46
68	796
69	364
70	102
79	23
83	129
84	256
104	31
107	44
112	364
113	23
