Mass spectrum: 3-ETHYLQUINOLINE; EI-MS
Formula: C11H11N
Exact mass: 157.08915
Instrument type: EI-MS
m/z	relative intensity
27	23
29	18
39	16
50	11
51	11
63	107
75	67
77	67
89	93
101	31
102	24
103	10
115	267
116	67
128	83
129	67
142	999
143	127
156	183
157	666
158	14
