Mass spectrum: 1-ISOPROPYL-2-PROPYLHYDRAZINE; EI-MS
Formula: C6H16N2
Exact mass: 116.13135
Instrument type: EI-MS
m/z	relative intensity
26	24
27	297
28	216
29	12
30	432
31	621
32	92
39	11
40	30
41	405
42	203
43	73
44	297
45	999
46	40
54	3
55	10
56	103
57	54
58	60
59	119
60	14
71	36
72	4
73	433
74	43
85	10
87	68
88	46
99	20
101	621
102	5
115	15
116	759
117	89
