Mass spectrum: 4-(3-METHYL-2-BUTENOXY)-2-METHYL-2-BUTANOL; EI-MS
Formula: C10H20O2
Exact mass: 172.14633
Instrument type: EI-MS
m/z	relative intensity
27	58
29	50
39	70
40	3
41	602
42	86
43	75
53	8
55	172
56	42
57	67
59	19
67	106
68	145
69	999
70	32
71	318
83	50
85	498
86	6
87	80
89	125
96	25
139	44
140	41
