Mass spectrum: HEXAFLUOROISOPROPYL 3BETA-TRIFLUOROACETOXY-5BETA-CHOLAN-24-OATE; EI-MS
Name: HEXAFLUOROISOPROPYL 3BETA-TRIFLUOROACETYL5BETA-CHOLANOATE
Formula: C29H39F9O4
Exact mass: 622.27046
Instrument type: EI-MS
m/z	relative intensity
39	34
41	273
42	41
43	185
44	16
45	42
47	18
50	25
51	37
53	111
54	58
55	999
56	67
57	86
59	28
64	18
65	53
66	39
67	659
68	530
69	437
70	30
73	23
77	134
78	80
79	213
80	110
81	385
82	338
83	216
85	62
91	314
92	71
93	660
94	249
95	755
96	47
97	115
105	298
106	255
107	681
108	377
109	445
110	88
111	52
115	39
117	68
119	191
120	109
121	392
122	270
123	254
124	30
128	39
131	61
133	193
134	68
135	244
136	98
137	134
138	19
139	10
141	25
145	87
147	272
148	133
149	544
150	69
151	28
159	26
160	55
161	150
162	74
163	71
173	31
175	44
187	23
189	23
201	52
203	28
207	24
209	60
210	23
211	32
215	114
216	123
217	204
218	33
230	70
237	20
257	32
261	26
262	63
263	75
315	77
329	734
330	415
331	67
341	30
344	213
345	57
346	19
401	19
437	25
493	50
508	66
509	30
607	28
622	144
623	18
