Mass spectrum: ACETALDEHYDE HEXYL ISOAMYL ACETAL; EI-MS
Name: ACETALDEHYDE HEXYL 3-METHYLBUTYL ACETAL
Formula: C13H28O2
Exact mass: 216.20893
Instrument type: EI-MS
m/z	relative intensity
15	15
27	154
29	165
31	59
39	73
41	286
42	150
43	999
44	54
45	132
53	14
54	11
55	218
56	161
57	94
69	44
70	66
71	655
72	32
82	12
84	17
85	381
86	22
113	17
115	307
116	23
117	15
129	226
130	17
201	58
