Mass spectrum: 8-METHYL-4-OXO-4H-PYRIDO(1,2-A)PYRIMIDINE-3-CARBOXYLIC ACID ETHYL ESTER; EI-MS
Formula: C12H12N2O3
Exact mass: 232.08479
Instrument type: EI-MS
m/z	relative intensity
39	100
41	30
43	9
44	1
50	15
51	42
52	42
53	12
54	9
63	24
64	55
65	27
66	61
76	18
77	79
78	4
79.5	12
90	9
91	58
92	77
93	145
94	9
103	9
104	6
105	11
118	15
119	288
120	2
131	48
132	364
133	33
149	1
158	18
159	242
160	909
161	10
175	6
176	133
177	12
186	2
187	999
188	136
189	15
204	6
205	3
231	3
232	909
233	13
234	9
