Mass spectrum: PERAZINE; EI-MS
Name: 10-(3-(4-METHYL-1-PIPERAZINYL)PROPYL)-10H-PHENOTHIAZINE
Formula: C20H25N3S
Exact mass: 339.17692
Instrument type: EI-MS
m/z	relative intensity
51	23
52	36
56	85
57	16
58	152
59	17
62	13
63	22
65	25
69	25
70	896
71	132
72	42
75	22
77	33
78	17
80	15
82	20
83	35
84	56
85	65
86	20
88	16
89	13
93	22
96	39
97	49
98	35
99	74
100	44
101	21
105	18
106	16
108	21
111	86
112	42
113	873
114	96
115	21
117	13
125	21
126	25
127	157
128	34
130	13
135	26
136	17
138	16
139	68
140	49
141	541
142	59
148	13
151	13
152	44
153	34
154	111
155	30
165	16
166	109
167	219
168	36
170	15
171	42
172	20
178	20
179	56
180	234
181	44
184	21
191	16
192	16
193	17
196	30
197	52
198	382
199	673
200	100
201	39
205	14
206	16
207	13
210	35
211	16
212	186
213	149
214	36
223	59
224	164
225	180
226	133
227	30
236	49
237	29
238	311
239	201
240	44
241	21
268	18
269	13
282	45
295	46
296	20
337	22
339	999
340	252
341	78
342	21
