Mass spectrum: ISOPROPYL DECANOATE; EI-MS
Name: ISOPROPYL CAPRATE
Formula: C13H26O2
Exact mass: 214.19328
Instrument type: EI-MS
m/z	relative intensity
27	21
29	25
41	116
42	88
43	999
44	30
45	11
55	89
56	45
57	369
58	17
59	302
60	955
61	213
67	21
68	14
69	132
70	52
71	327
72	17
73	299
74	45
81	35
82	19
83	79
84	70
85	88
87	106
89	16
95	35
97	34
98	43
101	33
102	545
103	61
110	22
111	19
112	65
113	16
115	44
129	148
130	12
143	21
155	196
156	19
172	116
173	123
174	12
