Mass spectrum: PROPANETHIOL; EI-MS
Formula: C3H8S
Exact mass: 76.03467
Instrument type: EI-MS
m/z	relative intensity
15	54
26	83
27	584
28	40
29	80
32	18
33	65
34	25
35	78
37	30
38	67
39	385
40	82
41	767
42	831
43	869
44	26
45	318
46	262
47	999
48	117
49	39
57	25
58	70
59	59
60	11
61	120
69	21
71	14
75	11
76	944
77	34
78	33
