Mass spectrum: BENZOIC ACID ISOPROPYL ESTER; EI-MS
Name: ISOPROPYL BENZOATE
Formula: C10H12O2
Exact mass: 164.08373
Instrument type: EI-MS
m/z	relative intensity
27	12
41	34
42	17
43	125
51	17
59	244
77	199
78	34
79	33
105	999
106	119
107	10
122	229
123	387
124	30
149	26
164	169
165	22
