Mass spectrum: ETHYL SEC-BUTYL ETHER; EI-MS
Formula: C6H14O
Exact mass: 102.10447
Instrument type: EI-MS
m/z	relative intensity
14	30
15	95
19	15
26	4
27	260
28	65
29	323
30	2
31	94
39	57
41	124
42	3
43	100
44	30
45	999
46	3
55	32
56	34
57	110
58	2
59	190
72	25
73	501
74	2
87	35
88	22
102	38
