Mass spectrum: 2-METHYL-3-PENTANOL; EI-MS
Formula: C6H14O
Exact mass: 102.10447
Instrument type: EI-MS
m/z	relative intensity
15	23
26	14
27	187
28	31
29	124
30	12
31	420
39	106
40	13
41	282
42	32
43	166
44	11
45	140
53	12
55	211
56	15
57	87
58	218
59	999
60	34
69	18
72	13
73	395
74	14
