Mass spectrum: 3-(DIETHOXYPHOSPHORYL)METHYL-5-PHENYLSULFONYL-2-ISOXAZOLINE; EI-MS
Formula: C14H20NO6PS
Exact mass: 361.07489
Instrument type: EI-MS
m/z	relative intensity
40	36
41	37
42	39
50	39
51	156
54	159
65	143
76	319
77	102
80	118
81	122
82	142
95	98
97	56
109	94
122	39
125	134
142	35
146	357
164	999
165	50
192	355
220	783
221	74
