Mass spectrum: DL-ALPHA-PHENYL-BETA-(TRIMETHYLSILYL)OXY-PROPIONIC ACID TRIMETHYLSILYL ESTER; EI-MS
Name: TRIMETHYLSILYL DL-ALPHA-PHENYL-BETA-TRIMETHYLSILOXYPROPIONATE
Formula: C15H26O3Si2
Exact mass: 310.14205
Instrument type: EI-MS
m/z	relative intensity
45	85
73	999
75	193
97	8
103	454
104	236
118	437
147	52
148	81
205	34
220	34
267	4
280	330
281	85
295	38
