Mass spectrum: 2-ETHYLFURAN; EI-MS
Formula: C6H8O
Exact mass: 96.05751
Instrument type: EI-MS
m/z	relative intensity
27	141
29	69
39	170
40	59
41	280
42	39
51	27
52	46
53	678
54	40
55	19
65	68
66	49
67	201
68	66
69	66
80	10
81	999
82	107
94	19
95	130
96	620
97	59
