Mass spectrum: 8-METHYL-4-OXO-4H-PYRIDO(1,2-A)PYRIMIDINE-3-ACETIC ACID ETHYL ESTER; EI-MS
Formula: C13H14N2O3
Exact mass: 246.10044
Instrument type: EI-MS
m/z	relative intensity
39	27
55	45
64	10
65	6
66	12
72.5	12
86.5	15
91	1
92	155
93	27
119	35
144	1
145	30
172	10
173	999
174	13
175	10
201	32
246	225
247	35
