Mass spectrum: 2-OXOPROPYL PHENYLACETATE; EI-MS
Formula: C11H12O3
Exact mass: 192.07864
Instrument type: EI-MS
m/z	relative intensity
40	19
41	13
42	342
48	11
49	26
56	42
63	31
65	118
71	21
85	10
89	38
90	38
91	999
92	94
118	483
119	158
120	14
192	16
