Mass spectrum: 3,3-DIMETHYL-1,2,3,4-TETRAHYDRO-GAMMA-CARBOLINE-1-SPIRO-4'-(1'-METHYL)PIPERIDINE; EI-MS
Formula: C18H25N3
Exact mass: 283.20485
Instrument type: EI-MS
m/z	relative intensity
42	11
43	10
58	50
70	2
77	11
115	12
155	84
182	4
183	53
197	75
198	19
212	14
213	10
224	33
225	999
226	20
240	53
254	30
282	33
283	261
