Mass spectrum: 3,3-DIMETHYL-2-BUTANONE; EI-MS
Name: PINACOLONE
Formula: C6H12O
Exact mass: 100.08882
Instrument type: EI-MS
m/z	relative intensity
14	10
15	86
26	11
27	9
28	19
29	414
38	14
39	15
40	21
41	427
42	38
43	37
50	10
51	11
53	12
55	4
56	74
57	999
58	46
67	1
85	38
100	200
101	18
