Mass spectrum: FORMIC ACID BUTYL ESTER; EI-MS
Name: BUTYL FORMATE
Formula: C5H10O2
Exact mass: 102.06808
Instrument type: EI-MS
m/z	relative intensity
15	10
26	13
27	165
28	95
29	164
31	406
39	80
40	26
41	583
42	84
43	210
44	39
45	46
47	19
55	122
56	999
57	80
60	13
73	43
