Mass spectrum: 3,3,5-TRIMETHYL-1,2,3,4-TETRAHYDRO-GAMMA-CARBOLINE-1-SPIRO-4'-(1'-METHYL)PIPERIDINE(2-D); EI-MS
Formula: C19H27N3
Exact mass: 297.2205
Instrument type: EI-MS
m/z	relative intensity
58	60
70	91
167	58
168	12
169	158
170	71
182	64
183	5
196	84
197	104
211	148
212	11
213	54
225	99
226	248
227	15
238	66
239	999
240	805
241	16
254	80
255	67
268	58
269	5
296	38
297	336
298	255
299	49
