Mass spectrum: 3,5-DIMETHYLBENZOIC ACID METHYL ESTER; EI-MS
Formula: C10H12O2
Exact mass: 164.08373
Instrument type: EI-MS
m/z	relative intensity
51	51
52	30
62	25
63	3
64	10
65	30
76	30
77	15
78	30
79	134
80	15
89	2
90	10
91	10
98	10
102	3
103	97
104	51
105	500
106	5
107	25
119	20
120	10
121	2
123	10
133	999
134	113
135	2
139	10
149	20
150	10
163	2
164	396
165	67
