Mass spectrum: DIMETHYL SULFOXIDE; EI-MS
Formula: C2H6OS
Exact mass: 78.01394
Instrument type: EI-MS
m/z	relative intensity
14	15
15	116
27	49
28	120
29	52
31	71
32	34
33	25
34	40
35	64
45	169
46	84
47	84
48	51
61	169
62	65
63	999
64	24
65	43
78	765
79	41
80	35
