Mass spectrum: 5-CHLORO-1-PHENYLPYRAZOLE; EI-MS
Formula: C9H7ClN2
Exact mass: 178.02978
Instrument type: EI-MS
m/z	relative intensity
26	21
27	95
28	46
36	2
37	28
38	76
39	138
40	4
41	16
47	15
49	12
50	17
51	621
52	73
60	21
61	1
62	46
63	97
64	64
65	10
66	43
67	12
71	18
715	1
73	37
74	55
75	100
76	6
77	707
78	97
86	12
87	1
88	27
89	201
90	78
91	3
102	13
103	11
104	98
114	2
115	79
116	460
117	76
124	4
126	13
142	85
143	380
144	5
150	11
151	81
152	86
153	3
154	28
177	17
178	999
179	12
180	333
181	39
