Mass spectrum: 1,1-BIS(TRIMETHYLSILYL)ETHYLENE; EI-MS
Formula: C8H20Si2
Exact mass: 172.11035
Instrument type: EI-MS
m/z	relative intensity
43	55
45	121
55	15
58	26
59	49
69	10
73	999
74	87
75	39
83	47
84	64
85	12
98	12
99	27
157	239
158	42
159	19
172	72
173	14
