Mass spectrum: 1,3-BUTANEDIOL; EI-MS
Formula: C4H10O2
Exact mass: 90.06808
Instrument type: EI-MS
m/z	relative intensity
27	60
28	244
29	185
31	134
39	11
41	69
42	141
43	999
44	238
45	905
46	60
47	26
54	11
55	36
57	293
58	13
71	29
72	409
73	25
75	131
90	2
