Mass spectrum: MALONONITRILE; EI-MS
Formula: C3H2N2
Exact mass: 66.0218
Instrument type: EI-MS
m/z	relative intensity
12	15
13	8
14	13
18	3
24	10
25	12
26	33
27	16
28	114
29	3
32	2
36	3
37	5
38	258
39	221
40	48
50	15
51	11
52	3
53	2
64	52
65	84
66	999
67	42
69	1
