Mass spectrum: 2-NORBORNANEACETIC ACID; EI-MS
Name: BICYCLO(2.2.1)HEPT-2-YLACETIC ACID
Formula: C9H14O2
Exact mass: 154.09938
Instrument type: EI-MS
m/z	relative intensity
43	11
54	90
55	61
60	29
66	161
67	661
68	422
69	40
71	60
79	151
80	61
81	61
82	71
83	40
84	50
85	943
87	271
92	81
93	71
94	999
95	593
96	40
108	230
109	61
112	50
113	30
125	152
126	110
136	412
137	40
154	360
155	41
