Mass spectrum: BENZALDEHYDE BUTYL ISOPENTYL ACETAL; EI-MS
Name: BENZALDEHYDE BUTYL ISOAMYL ACETAL
Formula: C16H26O2
Exact mass: 250.19328
Instrument type: EI-MS
m/z	relative intensity
27	83
28	15
29	184
31	1
39	53
41	225
42	22
43	36
44	15
51	37
53	11
55	7
56	18
57	112
70	12
71	30
72	14
77	136
78	31
79	21
80	12
89	12
90	16
91	3
105	156
106	44
107	999
108	9
163	544
164	78
177	359
178	50
