Mass spectrum: PROPYLCYCLOHEXANE; EI-MS
Formula: C9H18
Exact mass: 126.14085
Instrument type: EI-MS
m/z	relative intensity
27	142
28	30
29	138
39	16
40	41
41	432
42	89
43	9
51	16
53	56
54	79
55	88
56	134
57	35
65	15
67	18
68	40
69	106
70	49
77	1
79	14
81	26
82	625
83	999
84	78
97	35
98	12
126	29
127	30
