Mass spectrum: ISOCAUCALOL; EI-MS
Formula: C15H26O3
Exact mass: 254.18819
Instrument type: EI-MS
m/z	relative intensity
41	700
42	140
43	999
44	9
45	55
51	15
52	5
53	0
54	15
55	250
56	90
57	12
58	20
59	20
60	5
62	0
63	1
65	20
66	10
67	7
68	30
69	245
70	40
71	2
72	20
73	38
74	10
75	1
77	35
78	10
79	45
80	3
81	140
82	63
83	170
84	4
85	70
86	20
87	25
88	0
89	5
91	35
92	10
93	7
94	30
95	80
96	25
97	10
98	45
99	30
101	85
102	1
105	15
107	60
108	65
109	3
110	180
111	85
112	13
113	2
115	5
117	8
118	5
119	0
120	8
121	55
122	30
124	2
125	65
126	60
127	115
128	2
129	8
130	3
131	3
132	1
133	10
134	30
135	25
136	3
137	20
138	8
139	25
140	1
141	5
142	5
143	5
144	1
145	5
147	13
148	5
149	2
151	10
152	8
153	20
154	3
155	7
159	5
160	10
161	0
163	8
164	7
165	23
167	1
171	10
175	10
179	10
191	2
218	15
236	45
237	10
254	10
