Mass spectrum: ENDO-NORBORNEOL; EI-MS
Name: NORBORNEOL
Formula: C7H12O
Exact mass: 112.08882
Instrument type: EI-MS
m/z	relative intensity
39	11
40	64
41	23
42	47
43	25
44	34
52	40
53	22
54	89
55	60
56	148
58	25
65	10
66	453
67	421
68	446
69	56
70	95
71	43
77	23
78	10
79	577
80	50
81	98
82	12
83	136
84	41
91	10
93	47
94	999
95	83
97	54
111	11
112	28
