Mass spectrum: TETRAHYDROFURFURYL 9-OCTADECENOATE; EI-MS
Formula: C23H42O3
Exact mass: 366.3134
Instrument type: EI-MS
m/z	relative intensity
53	33
54	385
55	75
56	179
67	176
68	65
69	153
70	6
71	999
72	56
79	39
80	2
81	114
82	82
83	104
84	38
85	419
95	78
96	68
97	6
98	167
100	33
109	42
110	4
111	33
112	58
123	29
137	3
144	43
152	26
157	26
264	12
265	37
366	59
367	26
