Mass spectrum: 2-ETHYLANILINE; EI-MS
Formula: C8H11N
Exact mass: 121.08915
Instrument type: EI-MS
m/z	relative intensity
28	21
39	23
51	18
52	14
53	18
63	11
65	32
66	14
77	104
78	37
79	60
80	16
91	33
92	14
93	25
94	11
103	25
104	22
106	999
107	85
117	11
118	28
119	25
120	48
121	469
122	45
