Mass spectrum: 4-(2-INDOLYL)BUTYLIC ACID METHYL ESTER; EI-MS
Formula: C13H15NO2
Exact mass: 217.11028
Instrument type: EI-MS
m/z	relative intensity
117	10
130	999
131	100
143	220
144	45
156	10
157	10
186	70
187	10
217	441
218	55
