Mass spectrum: 2-METHYL-5-(4-METHYL-1-PENTYNYL)PYRIDINE; EI-MS
Formula: C12H15N
Exact mass: 173.12045
Instrument type: EI-MS
m/z	relative intensity
38	34
39	139
40	39
41	15
42	44
43	171
50	107
51	22
52	83
53	73
55	33
57	2
61	14
62	66
63	317
64	7
65	146
66	46
67	29
74	5
75	95
76	105
77	464
78	10
79	44
80	23
81	12
86	1
87	39
88	29
89	125
90	7
91	112
92	125
93	93
94	4
101	39
102	135
103	207
104	6
105	15
106	86
107	26
114	1
115	129
116	83
117	268
118	11
119	59
120	195
121	21
127	2
128	20
129	18
130	999
131	46
132	105
133	14
134	44
135	7
136	21
141	17
142	44
143	12
144	488
145	95
146	22
156	4
157	83
158	658
159	68
160	12
172	10
173	354
174	62
