Mass spectrum: DODECYLTRIMETHYLAMMONIUM CHLORIDE; EI-MS
Formula: C15H34ClN
Exact mass: 263.23798
Instrument type: EI-MS
m/z	relative intensity
45	28
50	94
58	999
69	16
71	16
83	12
85	10
91	40
100	8
105	13
114	11
128	8
142	5
156	4
170	4
184	5
198	9
213	213
228	4
