Mass spectrum: 2-TERT-BUTYLCYCLOHEXYL ACETATE(EQUATORIAL-AXIAL); EI-MS
Formula: C12H22O2
Exact mass: 198.16198
Instrument type: EI-MS
m/z	relative intensity
43	39
54	11
56	20
57	999
58	20
61	58
67	31
80	9
81	45
82	983
83	48
95	1
117	48
123	73
138	36
142	13
