Mass spectrum: 3,5-DIMETHYL-4-PYRONE; EI-MS
Formula: C7H8O2
Exact mass: 124.05243
Instrument type: EI-MS
m/z	relative intensity
41	50
53	70
55	70
56	560
63	50
67	90
68	50
69	70
81	60
83	100
84	130
85	70
94	50
95	400
96	130
124	999
125	70
