Mass spectrum: L-(-)-ALPHA-PHENYLETHYLAMINE; EI-MS
Formula: C8H11N
Exact mass: 121.08915
Instrument type: EI-MS
m/z	relative intensity
42	144
43	157
44	173
45	152
50	35
51	88
52	33
53	102
58	40
59	213
60	16
63	17
65	16
73	12
74	133
75	12
76	12
77	167
78	56
79	265
80	20
91	24
103	41
104	56
105	208
106	999
107	84
120	84
121	16
