Mass spectrum: 3-METHYLBUTYL PHENYLACETATE; EI-MS
Name: ISOPENTYL PHENYLACETATE
Formula: C13H18O2
Exact mass: 206.13068
Instrument type: EI-MS
m/z	relative intensity
27	83
28	25
29	99
39	114
40	12
41	184
42	37
43	999
44	38
51	34
52	10
53	11
55	129
63	39
64	13
65	171
69	22
70	474
71	230
72	11
89	47
90	39
91	970
92	192
93	10
119	32
136	163
137	49
206	15
