Mass spectrum: 1-METHYLBICYCLO(4.4.0)DECANE-4,4-D2(TRANS); EI-MS
Formula: C11H20
Exact mass: 152.1565
Instrument type: EI-MS
m/z	relative intensity
39	129
40	52
41	255
42	115
43	63
51	25
52	26
53	66
54	70
55	207
56	151
57	66
58	11
65	28
66	41
67	326
68	250
69	280
70	111
71	49
72	12
77	39
78	25
79	68
80	47
81	252
82	459
83	411
84	231
85	114
86	11
91	25
92	18
93	27
94	36
95	468
96	258
97	805
98	404
99	47
108	15
109	257
110	182
111	318
112	192
113	27
124	21
125	86
126	26
138	114
139	999
140	131
141	11
153	17
154	907
155	120
