Mass spectrum: MAACKIAIN ACETATE; EI-MS
Formula: C18H14O6
Exact mass: 326.07904
Instrument type: EI-MS
m/z	relative intensity
134	320
139	40
141	40
147	120
151	120
152	40
162	200
171	40
175	160
247	40
253	40
267	40
283	120
284	999
285	120
326	280
329	40
