Mass spectrum: S-PROPYL THIOBENZOATE; EI-MS
Formula: C10H12OS
Exact mass: 180.06089
Instrument type: EI-MS
m/z	relative intensity
27	32
39	26
41	27
45	16
47	13
50	30
51	146
75	10
76	14
77	398
78	26
105	999
106	81
180	57
