Mass spectrum: PARA-METHOXYCINNAMIC ACID TRIMETHYLSILYL ESTER; EI-MS
Formula: C13H18O3Si
Exact mass: 250.10252
Instrument type: EI-MS
m/z	relative intensity
73	144
75	223
77	188
90	7
118	88
121	194
133	248
161	999
162	94
165	59
191	584
192	8
235	603
236	88
250	317
251	50
