Mass spectrum: 1,3-DIMETHYL PHTHALAE; EI-MS
Name: ISOPHTHALIC ACID DIMETHYL ESTER
Formula: C10H10O4
Exact mass: 194.05791
Instrument type: EI-MS
m/z	relative intensity
103	19
120	20
135	112
136	12
149	13
163	999
164	109
165	12
193	41
194	430
195	52
