Mass spectrum: FURFURAL; EI-MS
Formula: C5H4O2
Exact mass: 96.02113
Instrument type: EI-MS
m/z	relative intensity
25	13
26	22
29	247
36	19
37	149
38	245
39	761
40	52
41	23
42	52
49	20
50	32
51	31
53	22
66	13
67	47
68	16
95	892
96	999
97	49
