Mass spectrum: 4-TRIMETHYLSILYLMETHYL-3-CYCLOHEXENEC-1-ARBALDEHYDE; EI-MS
Formula: C11H20OSi
Exact mass: 196.12834
Instrument type: EI-MS
m/z	relative intensity
41	21
43	42
45	101
53	14
55	11
57	11
59	69
65	11
72	13
73	999
74	87
75	129
77	31
78	50
79	26
80	28
91	59
92	16
93	30
103	103
104	12
105	19
106	103
107	14
129	368
130	44
131	16
151	22
181	23
196	37
