Mass spectrum: 2-ETHOXYETHANOL; EI-MS
Name: ETHYL CELLOSOLVE
Formula: C4H10O2
Exact mass: 90.06808
Instrument type: EI-MS
m/z	relative intensity
27	51
28	18
29	275
31	999
32	25
33	13
41	49
43	12
44	26
45	328
46	13
59	89
60	33
61	31
72	279
73	2
74	11
90	10
