Mass spectrum: PHENYLETHYL ISOBUTYRATE; EI-MS
Formula: C12H16O2
Exact mass: 192.11503
Instrument type: EI-MS
m/z	relative intensity
27	80
39	63
42	13
43	431
44	13
50	10
51	44
63	12
65	48
71	149
77	69
78	37
79	29
91	99
92	13
103	47
104	999
105	175
