Mass spectrum: PROPYL ISOBUTYRATE; EI-MS
Formula: C7H14O2
Exact mass: 130.09938
Instrument type: EI-MS
m/z	relative intensity
15	16
26	17
27	238
28	34
29	49
31	23
39	108
40	17
41	277
42	119
43	999
44	30
55	12
57	13
59	33
71	480
72	19
73	27
88	14
89	342
90	14
101	22
