Mass spectrum: 1,1-DICHLORO-2-PHENYL-2-TRIMETHYLSILOXYETHANE; EI-MS
Formula: C11H16Cl2OSi
Exact mass: 262.03475
Instrument type: EI-MS
m/z	relative intensity
43	73
45	152
51	79
65	62
74	177
75	171
77	175
79	60
90	47
91	299
92	126
93	471
95	179
102	96
103	198
105	72
119	300
138	86
163	55
179	999
180	707
181	206
247	18
249	14
