Mass spectrum: TRIMETHYL PHOSPHATE; EI-MS
Formula: C3H9O4P
Exact mass: 140.02385
Instrument type: EI-MS
m/z	relative intensity
15	21
31	17
79	42
80	66
95	95
109	156
110	999
111	26
