Mass spectrum: 3-(DIMETHYLFLUOROSILYL)-3,7-DIMETHYL-1,6-OCTADIENE; EI-MS
Formula: C12H23FSi
Exact mass: 214.15531
Instrument type: EI-MS
m/z	relative intensity
40	16
41	20
42	110
48	18
49	35
53	17
55	22
56	15
60	19
64	13
67	14
68	21
69	111
70	15
73	15
77	999
78	73
79	37
145	266
146	44
147	26
171	20
199	15
214	35
