Mass spectrum: 4-METHOXYBENZALDEHYDE DIMETHYL ACETAL; EI-MS
Name: ANISALDEHYDE DIMETHYL ACETAL
Formula: C10H14O3
Exact mass: 182.09429
Instrument type: EI-MS
m/z	relative intensity
15	38
29	29
31	11
39	38
47	11
50	15
51	41
59	11
63	28
64	19
65	44
75	41
77	82
78	30
79	15
91	34
92	42
107	18
108	57
121	12
135	223
136	102
151	999
152	101
182	57
