Mass spectrum: MAACKIAIN; EI-MS
Formula: C16H12O5
Exact mass: 284.06847
Instrument type: EI-MS
m/z	relative intensity
134	120
137	20
141	50
147	90
151	70
162	130
175	70
197	30
267	80
283	190
284	999
285	150
