Mass spectrum: NICOTINIC ACID; EI-MS
Name: NIACIN
Formula: C6H5NO2
Exact mass: 123.03203
Instrument type: EI-MS
m/z	relative intensity
26	28
27	21
28	32
29	8
37	18
38	28
39	47
40	11
41	7
42	4
44	5
45	56
48	5
49	38
50	185
51	289
52	112
53	41
66	9
67	10
68	7
75	19
76	26
77	175
78	388
79	36
80	3
94	11
95	7
105	469
106	274
107	19
122	3
123	999
124	140
125	11
