Mass spectrum: NAPHTHALENE; EI-MS
Formula: C10H8
Exact mass: 128.0626
Instrument type: EI-MS
m/z	relative intensity
39	12
50	26
51	80
62	13
63	53
63.5	10
64	90
64.5	1
74	28
75	35
76	28
77	4
78	26
87	10
98	12
101	3
102	65
126	76
127	130
128	999
129	120
