Mass spectrum: 1,1,3,3,6-PENTAMETHYL-1,2,3,4-TETRAHYDRO-GAMMA-CARBOLINE; EI-MS
Formula: C16H22N2
Exact mass: 242.1783
Instrument type: EI-MS
m/z	relative intensity
42	35
98	30
105	61
106	4
128	23
144	30
154	26
168	3
169	29
170	73
171	24
184	5
185	316
186	61
210	26
211	6
227	999
228	173
241	27
242	107
