Mass spectrum: 1-ETHYL-1-PHENYLHYDRAZINE; EI-MS
Formula: C8H12N2
Exact mass: 136.10005
Instrument type: EI-MS
m/z	relative intensity
27	68
29	92
30	16
38	2
39	76
40	12
41	17
42	2
43	114
44	16
50	56
51	10
52	56
53	52
63	36
64	4
65	68
66	16
74	16
75	2
76	16
77	680
78	108
79	13
80	15
91	128
92	72
93	6
94	44
104	174
105	192
106	34
107	380
108	36
118	36
119	3
120	36
121	999
122	92
135	2
136	900
137	96
