Mass spectrum: FLUORANTHENE; EI-MS
Formula: C16H10
Exact mass: 202.07825
Instrument type: EI-MS
m/z	relative intensity
43	31
50	11
51	13
62	14
63	17
67	11
74	31
75	64
76	13
86	11
87	101
88	238
98	14
99	70
100	336
101	430
102	15
150	18
174	23
175	17
176	15
198	23
199	35
200	192
201	164
202	999
203	189
204	21
