Mass spectrum: PROPYLENE OXIDE; EI-MS
Formula: C3H6O
Exact mass: 58.04186
Instrument type: EI-MS
m/z	relative intensity
14	106
15	217
16	26
18	16
26	52
27	101
28	495
29	4
32	134
37	27
38	31
39	5
40	15
41	28
42	83
43	999
44	31
58	220
59	12
