Mass spectrum: ISOPROPYL 2-METHYLBUTYRATE; EI-MS
Formula: C8H16O2
Exact mass: 144.11503
Instrument type: EI-MS
m/z	relative intensity
15	11
17	18
18	95
26	13
27	146
29	139
39	117
41	362
42	53
43	999
44	23
45	35
53	11
55	37
56	110
57	794
58	30
59	103
73	20
74	174
85	489
86	25
87	62
102	59
103	238
104	12
116	142
129	29
