Mass spectrum: METHYL 3-FORMYL-2,4-DIHYDROXY-6-METHYLBENZOATE; EI-MS
Formula: C10H10O5
Exact mass: 210.05282
Instrument type: EI-MS
m/z	relative intensity
39	150
41	40
51	100
53	9
65	100
66	100
77	40
81	2
93	70
94	100
106	10
109	2
121	70
122	160
134	10
150	999
151	100
178	210
182	170
210	47
211	50
