Mass spectrum: ISOPROPYL BENZOATE; EI-MS
Name: BENZOIC ACID ISOPROPYL ESTER
Formula: C10H12O2
Exact mass: 164.08373
Instrument type: EI-MS
m/z	relative intensity
27	89
39	66
41	123
42	33
43	226
50	69
51	228
52	14
59	236
76	25
77	459
78	58
79	47
105	999
106	102
122	160
123	256
124	18
146	17
149	17
164	58
165	6
