Mass spectrum: 1,2-PROPANEDIAMINE; EI-MS
Formula: C3H10N2
Exact mass: 74.0844
Instrument type: EI-MS
m/z	relative intensity
14	20
15	59
16	12
17	1
18	240
26	17
27	40
28	17
29	34
30	314
39	13
40	1
41	30
42	80
43	31
44	999
45	28
51	23
59	15
