Mass spectrum: CAMPHENE; EI-MS
Name: 2,2-DIMETHYL-3-METHYLENEBICYCLO(2.2.1)HEPTANE
Formula: C10H16
Exact mass: 136.1252
Instrument type: EI-MS
m/z	relative intensity
41	60
43	71
53	26
55	78
67	227
68	234
79	348
80	123
93	999
95	264
107	382
108	144
121	866
122	77
136	178
