Mass spectrum: BENZALACETONE; EI-MS
Formula: C10H10O
Exact mass: 146.07316
Instrument type: EI-MS
m/z	relative intensity
43	131
51	14
77	288
78	30
82	13
91	20
101	12
102	53
103	711
104	76
115	14
117	27
118	12
131	999
132	107
144	12
145	416
146	774
147	86
