Mass spectrum: CURCUMIN; EI-MS
Name: 1,7-BIS(4-HYDROXY-3-METHOXYPHENYL)-1,6-HEPTADIENE-3,5-DIONE
Formula: C21H20O6
Exact mass: 368.12599
Instrument type: EI-MS
m/z	relative intensity
18	213
97	25
107	48
109	8
117	69
124	162
129	23
131	14
135	173
137	375
138	60
145	493
146	8
147	163
148	17
149	80
150	44
151	91
159	64
160	49
161	14
162	67
163	87
164	75
174	12
175	229
176	104
177	999
178	18
184	37
190	864
191	537
192	44
193	80
194	17
201	60
202	10
203	76
204	50
216	28
217	24
218	86
219	35
226	222
227	8
228	78
230	67
231	74
232	21
233	36
244	190
245	25
265	8
270	44
271	26
272	219
285	9
307	27
319	60
320	116
321	3
322	18
326	80
333	33
335	12
337	16
349	136
350	849
351	26
352	84
368	572
369	151
370	51
