Mass spectrum: 2-AMINO-1-METHOXYBUTANE; EI-MS
Formula: C5H13NO
Exact mass: 103.09971
Instrument type: EI-MS
m/z	relative intensity
15	120
17	85
18	345
26	20
27	127
28	92
29	99
30	334
31	98
39	38
40	11
41	253
42	162
43	98
44	106
45	136
47	26
54	13
55	14
56	57
57	25
58	999
59	157
70	20
71	14
72	13
74	119
75	25
86	217
87	14
100	13
101	40
