Mass spectrum: PROPIOPHENONE; EI-MS
Formula: C9H10O
Exact mass: 134.07316
Instrument type: EI-MS
m/z	relative intensity
27	45
29	22
38	10
39	17
50	52
51	182
52	12
57	11
63	10
74	17
75	14
76	23
77	466
78	38
105	999
106	78
133	10
134	167
135	17
