Mass spectrum: PARA-METHOXYPHENYLDIMETHYLSILANE; EI-MS
Formula: C9H14OSi
Exact mass: 166.08139
Instrument type: EI-MS
m/z	relative intensity
43	108
45	21
53	40
58	41
59	134
65	19
66	19
67	21
75	28
77	39
89	180
90	21
91	63
93	30
105	26
108	20
121	155
122	30
135	68
136	21
150	22
151	999
152	142
153	46
165	163
166	230
167	45
