Mass spectrum: 4-ETHOXY-2-ETHYL-6-METHYLPRIMIDINE; EI-MS
Formula: C9H14N2O
Exact mass: 166.11061
Instrument type: EI-MS
m/z	relative intensity
28	560
39	360
41	310
42	29
54	360
56	510
67	900
84	20
110	240
122	240
147	999
148	60
151	630
166	600
