Mass spectrum: BROMOETHANE; EI-MS
Formula: C2H5Br
Exact mass: 107.95746
Instrument type: EI-MS
m/z	relative intensity
15	14
26	121
27	884
28	307
29	999
30	43
93	10
95	9
108	233
109	18
110	211
111	12
