Mass spectrum: 3-METHYL-1,5-PENTANEDIOL; EI-MS
Formula: C6H14O2
Exact mass: 118.09938
Instrument type: EI-MS
m/z	relative intensity
15	39
18	182
19	42
27	260
29	403
30	39
31	610
39	221
40	42
41	896
42	636
43	740
44	208
45	182
53	78
54	110
55	999
56	481
57	507
58	104
67	818
68	78
69	468
70	656
71	396
72	65
77	47
81	91
82	286
83	84
85	53
87	52
88	38
101	49
