Mass spectrum: 1-AMINO-3-METHOXYPHENAZINE; EI-MS
Formula: C13H11N3O
Exact mass: 225.09021
Instrument type: EI-MS
m/z	relative intensity
64	50
65	60
75	80
76	140
77	220
102	120
103	60
112.5	70
129	110
155	90
168	180
169	70
182	220
194	80
195	290
196	500
197	80
210	70
224	50
225	999
226	135
227	30
