Mass spectrum: 1,2-BIS(2-CHLOROETHOXY)ETHANE; EI-MS
Formula: C6H12Cl2O2
Exact mass: 186.02144
Instrument type: EI-MS
m/z	relative intensity
43	127
44	32
45	204
49	23
57	11
59	70
62	32
63	999
64	33
65	316
72	19
73	78
93	504
94	19
95	160
101	14
106	104
107	213
108	43
109	71
137	45
139	15
