Mass spectrum: 2-PROPYLTHIAZOLE; EI-MS
Formula: C6H9NS
Exact mass: 127.04557
Instrument type: EI-MS
m/z	relative intensity
27	31
29	43
39	11
41	74
43	30
45	38
54	83
55	10
57	34
58	585
59	156
60	31
71	11
85	10
86	22
98	241
99	999
100	108
101	80
112	316
113	22
114	10
126	88
127	55
