Mass spectrum: 2-PYRIDINECARBOXYLIC ACID; EI-MS
Formula: C6H5NO2
Exact mass: 123.03203
Instrument type: EI-MS
m/z	relative intensity
39	56
41	11
43	21
45	9
50	186
51	354
52	463
77	3
78	317
79	999
91	11
93	2
95	11
104	30
105	15
106	3
123	20
