Mass spectrum: DECANAL DIMETHYL ACETAL; EI-MS
Formula: C12H26O2
Exact mass: 202.19328
Instrument type: EI-MS
m/z	relative intensity
15	11
27	40
29	62
31	34
39	27
41	136
42	17
43	63
45	62
47	51
55	73
57	25
58	57
67	18
68	16
69	48
71	236
72	11
75	999
76	32
81	16
82	17
83	60
85	12
95	13
97	25
171	57
