Mass spectrum: 2,2-DIMETHYL-3,4-BENZO-1-OXA-2-SILACYCLOPENT-3-ENE; EI-MS
Formula: C9H12OSi
Exact mass: 164.06574
Instrument type: EI-MS
m/z	relative intensity
43	42
45	32
53	21
63	21
67	18
74	22
75	27
77	28
81	24
89	35
90	18
91	18
103	22
105	59
119	15
121	17
131	25
133	31
145	23
147	25
148	17
149	999
150	145
151	44
163	128
164	240
165	40
166	11
