Mass spectrum: 2-METHYL-3-PENTANOL; EI-MS
Formula: C6H14O
Exact mass: 102.10447
Instrument type: EI-MS
m/z	relative intensity
29	16
31	101
41	92
42	11
43	77
45	64
55	160
56	16
57	53
58	210
59	999
60	37
69	23
72	20
73	591
74	27
85	191
86	14
101	13
102	3
