Mass spectrum: BENZYL BUTYL PHTHALATE; EI-MS
Name: PHTHALIC ACID BENZYL BUTYL ESTER
Formula: C19H20O4
Exact mass: 312.13616
Instrument type: EI-MS
m/z	relative intensity
56	14
91	155
92	16
104	44
105	40
106	10
107	34
122	49
123	161
124	11
132	158
133	21
135	78
136	19
149	999
150	117
151	11
177	11
178	65
205	66
206	424
207	58
238	51
239	14
312	18
313	5
