Mass spectrum: 2,5-DIMETHYL-1,2,3,4-TETRAHYDROPYRIMIDO(1,6-A)INDOLE; EI-MS
Formula: C13H16N2
Exact mass: 200.13135
Instrument type: EI-MS
m/z	relative intensity
55	12
77	14
115	22
128	3
130	38
142	24
144	30
156	21
157	999
158	95
199	14
200	372
