Mass spectrum: DIBENZOFURAN; EI-MS
Formula: C12H8O
Exact mass: 168.05751
Instrument type: EI-MS
m/z	relative intensity
63	31
69	47
74	12
84	90
87	43
88	15
89	22
114	25
137	13
138	16
139	236
140	28
168	999
169	135
