Mass spectrum: DODECAMETHYLENE IMINE; EI-MS
Formula: C12H25N
Exact mass: 183.1987
Instrument type: EI-MS
m/z	relative intensity
15	29
27	142
29	333
30	999
31	484
39	55
41	348
42	213
43	274
44	635
45	194
55	142
56	430
57	104
58	44
59	210
67	38
68	29
69	41
70	276
71	48
72	138
73	24
74	99
81	32
82	58
84	96
86	107
96	50
98	94
100	68
112	107
114	33
126	84
128	21
140	104
142	53
154	44
182	27
183	161
184	20
