Mass spectrum: 3-NITROPHTHALIC ACID DIMETHYL ESTER; EI-MS
Formula: C10H9NO6
Exact mass: 239.04299
Instrument type: EI-MS
m/z	relative intensity
39	13
40	16
50	13
63	3
75	113
76	100
77	36
78	2
91	23
92	16
103	23
104	27
105	56
119	53
120	50
132	7
135	16
150	13
177	23
208	999
209	150
210	16
