Mass spectrum: 3,3-DIDEUTEROFLAVAN-4-OL; EI-MS
Name: 2-PHENYL(3,3-2H2)CHROMAN-4-OL
Formula: C15H14O2
Exact mass: 226.09938
Instrument type: EI-MS
m/z	relative intensity
104	40
105	250
106	999
107	13
108	10
109	3
120	5
121	6
122	250
123	30
131	10
132	5
133	3
150	43
206	3
207	5
208	210
209	300
210	70
211	1
212	3
225	3
226	13
227	4
228	180
229	33
