Mass spectrum: DIETHYL 2-(DIETHOXYMETHYL)SUCCINATE; EI-MS
Formula: C13H24O6
Exact mass: 276.15729
Instrument type: EI-MS
m/z	relative intensity
75	606
76	19
83	107
84	13
85	31
88	15
99	14
100	244
101	13
104	128
105	11
110	17
112	16
113	15
127	19
128	49
129	340
130	24
141	18
145	53
155	15
156	45
157	579
158	72
173	54
184	104
185	999
186	99
187	16
189	41
201	55
202	12
230	178
231	161
232	21
247	18
276	23
