Mass spectrum: ALLYL BENZYL ETHER; EI-MS
Formula: C10H12O
Exact mass: 148.08882
Instrument type: EI-MS
m/z	relative intensity
41	143
42	20
43	21
51	61
52	13
63	25
65	118
77	109
78	28
79	128
89	28
90	16
91	999
92	587
93	38
104	67
105	111
106	40
107	165
108	16
118	21
130	13
147	22
148	18
