Mass spectrum: N-ACETYL-GLUTAMIC ACID DIMETHYLESTER; EI-MS
Formula: C9H15NO5
Exact mass: 217.09502
Instrument type: EI-MS
m/z	relative intensity
15	160
27	44
28	149
29	3
30	30
31	25
33	34
39	2
41	112
42	49
43	737
44	2
45	12
54	35
55	46
56	38
57	76
59	52
60	27
74	1
82	39
83	10
84	999
85	5
88	175
89	10
98	195
100	2
102	20
111	21
112	13
114	4
116	836
117	39
126	85
127	1
130	23
131	11
142	19
143	1
144	308
145	15
153	18
158	65
159	42
172	19
174	50
185	4
186	36
217	15
