Mass spectrum: ALPHA-METHYLBENZYL METHACRYLATE; EI-MS
Name: METHACRYLIC ACID ALPHA-METHYLBENZYL ESTER
Formula: C12H14O2
Exact mass: 190.09938
Instrument type: EI-MS
m/z	relative intensity
27	41
28	44
39	101
41	362
43	141
50	15
51	86
52	15
69	712
70	121
77	209
78	131
79	129
103	144
104	779
105	999
106	78
121	152
145	602
146	67
172	17
175	10
190	12
