Mass spectrum: METHYL BENZOATE; EI-MS
Formula: C8H8O2
Exact mass: 136.05243
Instrument type: EI-MS
m/z	relative intensity
51	23
77	347
78	25
91	17
92	19
105	999
106	84
135	19
136	473
137	44
