Mass spectrum: 2-TRIMETHYLSILOXYPENT-2-ENOIC ACID TRIMETHYLSILYL ESTER; EI-MS
Formula: C11H24O3Si2
Exact mass: 260.1264
Instrument type: EI-MS
m/z	relative intensity
43	15
45	118
47	20
51	2
55	67
59	30
66	20
68	2
72	20
73	427
74	25
75	7
127	36
131	25
133	36
142	4
147	999
148	154
149	97
201	4
217	25
245	216
246	41
247	2
260	30
