Mass spectrum: METHYL 2-TRIMETHYLSILOXY-TETRADECANOATE; EI-MS
Formula: C18H38O3Si
Exact mass: 330.25902
Instrument type: EI-MS
m/z	relative intensity
35	45
36	25
37	18
38	9
39	36
40	88
41	227
42	3
43	238
44	49
45	82
46	1
47	135
48	57
49	43
50	3
51	10
53	19
54	19
55	19
56	50
57	194
58	25
59	18
60	20
61	24
65	22
66	1
67	62
68	24
69	213
70	3
71	59
72	26
73	999
74	10
75	257
76	49
77	26
78	1
79	15
80	7
81	66
82	2
83	484
84	23
85	301
86	1
87	57
88	10
89	481
90	4
91	79
92	9
93	23
94	1
95	57
96	12
97	187
98	2
99	15
101	53
102	9
103	24
104	52
105	35
106	5
107	2
108	8
109	27
110	8
111	7
112	10
113	12
115	35
116	2
117	23
118	10
119	43
120	1
121	17
122	11
123	15
124	1
125	23
127	8
129	125
130	2
131	35
132	10
133	3
135	1
137	5
143	15
145	24
146	3
147	8
148	8
149	410
150	4
151	6
157	9
159	109
160	2
161	17
162	18
163	5
171	1
173	6
179	6
185	12
187	1
191	1
197	9
199	7
201	1
205	18
206	5
207	2
221	0
223	21
243	6
255	7
257	5
269	13
270	9
271	951
272	1
273	219
274	9
281	1
283	0
287	45
288	12
289	4
313	1
314	11
315	332
316	84
317	2
330	4
