Mass spectrum: BETA-GURJUNENE; EI-MS
Formula: C15H24
Exact mass: 204.1878
Instrument type: EI-MS
m/z	relative intensity
26	5
27	67
29	75
39	10
40	16
41	316
42	22
43	9
50	5
51	28
52	12
53	9
54	10
55	162
56	10
57	2
63	10
64	8
65	63
66	0
67	100
68	10
69	155
70	1
71	8
75	8
77	135
78	0
79	161
80	25
81	111
82	3
83	25
89	8
91	278
92	4
93	223
94	40
95	60
96	1
97	5
102	5
103	27
104	2
105	305
106	61
107	211
108	0
109	33
110	5
115	40
116	0
117	52
118	18
119	245
120	5
121	72
122	40
123	12
127	1
128	21
129	21
130	11
131	4
132	11
133	165
134	55
135	1
136	15
141	5
143	8
144	1
145	27
146	11
147	155
148	6
149	10
161	999
162	211
163	0
175	33
176	8
189	187
190	3
204	126
205	25
