Mass spectrum: 1-(4-PHENOXYPHENYL)ETHYL ALCOHOL; EI-MS
Formula: C14H14O2
Exact mass: 214.09938
Instrument type: EI-MS
m/z	relative intensity
27	72
29	80
38	28
39	20
40	29
41	68
42	15
43	47
44	34
45	70
50	96
51	38
52	42
53	28
55	57
56	2
57	61
62	18
63	79
64	4
65	456
66	103
67	24
68	1
69	25
70	11
71	33
74	2
75	29
76	40
77	575
78	11
79	27
81	18
83	18
85	2
89	23
91	80
92	22
93	37
94	115
95	53
97	16
99	1
100	48
102	13
103	28
104	2
105	28
106	12
107	18
115	12
116	14
119	13
120	13
121	4
122	34
123	12
127	12
128	4
139	32
141	98
142	27
143	1
151	12
152	60
153	162
154	2
165	10
168	14
169	28
170	3
171	160
172	21
181	18
196	1
197	87
198	28
199	999
200	14
201	14
213	18
214	512
215	80
