Mass spectrum: BUTYLAMINE; EI-MS
Formula: C4H11N
Exact mass: 73.08915
Instrument type: EI-MS
m/z	relative intensity
29	28
30	999
31	22
39	37
41	38
42	29
43	16
44	22
55	10
56	14
73	108
