Mass spectrum: 1,2,3,4,7,7-HEXAFLUOROBICYCLO(2.2.1)HEPT-2-ENE; EI-MS
Formula: C7H4F6
Exact mass: 202.02172
Instrument type: EI-MS
m/z	relative intensity
31	78
39	30
51	113
57	11
63	42
69	228
74	31
75	11
81	57
83	177
88	46
93	8
95	74
101	211
102	113
113	17
114	61
117	38
119	102
124	46
132	199
133	999
137	88
138	1
151	319
152	628
174	761
202	170
