Mass spectrum: 2-FORMYLTHIOPHENE; EI-MS
Formula: C5H4OS
Exact mass: 111.99829
Instrument type: EI-MS
m/z	relative intensity
26	21
29	87
32	13
37	65
38	93
39	352
40	15
42	13
44	14
45	228
49	26
50	63
51	26
53	22
56	11
57	164
58	142
69	35
81	61
82	54
83	117
84	41
111	999
112	940
113	107
114	44
