Mass spectrum: BUTYLHYDRAZONE ACETALDEHYDE; EI-MS
Name: ACETALDEHYDE BUTYLHYDRAZONE
Formula: C6H14N2
Exact mass: 114.1157
Instrument type: EI-MS
m/z	relative intensity
28	142
29	118
30	631
31	29
39	37
40	16
41	87
42	22
43	79
44	50
45	8
54	0
55	20
56	42
57	63
58	5
59	5
69	16
70	21
71	999
72	118
73	26
83	7
84	1
85	6
99	71
100	5
112	1
113	10
114	213
115	21
