Mass spectrum: 1-METHYLCYCLOHEXENE; EI-MS
Formula: C7H12
Exact mass: 96.0939
Instrument type: EI-MS
m/z	relative intensity
39	19
40	16
41	46
53	7
54	148
55	252
56	16
66	2
67	314
68	390
96	519
97	39
