Mass spectrum: 4-METHOXYPHENYLACETONE; EI-MS
Formula: C10H12O2
Exact mass: 164.08373
Instrument type: EI-MS
m/z	relative intensity
15	29
27	12
39	32
41	14
43	145
50	23
51	53
52	41
53	12
63	25
65	18
77	100
78	127
79	12
89	20
90	13
91	43
106	14
121	999
122	90
164	114
165	11
