Mass spectrum: 2,4-DIMETHYLQUINOLINE; EI-MS
Formula: C11H11N
Exact mass: 157.08915
Instrument type: EI-MS
m/z	relative intensity
39	60
41	13
50	30
51	40
63	70
75	48
77	61
89	81
101	19
102	20
103	10
115	190
116	78
127	16
128	72
129	80
140	43
141	15
142	90
156	215
157	999
158	182
159	27
