Mass spectrum: METHYL PROPIONATE; EI-MS
Name: PROPANOIC ACID METHYL ESTER
Formula: C4H8O2
Exact mass: 88.05243
Instrument type: EI-MS
m/z	relative intensity
42	14
45	28
55	45
56	32
57	999
58	17
59	320
60	13
87	22
88	308
89	15
