Mass spectrum: PARA-METHOXYBENZYL ACETATE; EI-MS
Formula: C10H12O3
Exact mass: 180.07864
Instrument type: EI-MS
m/z	relative intensity
43	60
77	57
78	28
89	17
90	42
91	126
92	33
93	19
105	43
106	17
107	24
109	77
119	35
120	520
121	999
123	92
135	15
137	69
138	255
139	25
180	722
181	83
