Mass spectrum: 2,4,5-TRIMETHYLOXAZOLE; EI-MS
Formula: C6H9NO
Exact mass: 111.06841
Instrument type: EI-MS
m/z	relative intensity
27	57
41	133
42	825
43	999
44	18
54	44
55	972
56	21
68	739
69	243
70	614
82	427
83	56
96	128
110	268
111	948
112	222
