Mass spectrum: DIPHENYL ETHER; EI-MS
Formula: C12H10O
Exact mass: 170.07316
Instrument type: EI-MS
m/z	relative intensity
27	23
38	25
39	138
50	106
51	513
52	22
55	22
63	52
65	65
66	22
70	38
71	43
74	24
76	21
77	427
78	27
85	20
94	39
115	113
139	28
141	509
142	378
143	36
168	21
169	232
170	999
171	119
