Mass spectrum: 1,2,3,4-CYCLOPENTANETETRACARBOXYLIC ACID TETRA(TRIMETHYLSILYL) ESTER; EI-MS
Name: TETRA(TRIMETHYLSILYL) 1,2,3,4-CYCLOPENTANETETRACARBOXYLATE
Formula: C21H42O8Si4
Exact mass: 534.19567
Instrument type: EI-MS
m/z	relative intensity
43	68
44	666
45	416
47	10
55	83
57	75
73	999
74	10
75	659
76	83
77	310
78	9
93	386
95	83
147	871
148	8
149	75
217	75
221	90
255	11
283	121
327	83
333	83
357	11
373	280
374	83
