Mass spectrum: 3-FORMYLINDOLE; EI-MS
Formula: C9H7NO
Exact mass: 145.05276
Instrument type: EI-MS
m/z	relative intensity
39	52
58	32
59	87
62	43
63	106
72	39
89	250
90	47
115	23
116	291
117	34
144	999
145	839
146	81
