Mass spectrum: VIRIDIN; EI-MS
Formula: C20H16O6
Exact mass: 352.09469
Instrument type: EI-MS
m/z	relative intensity
39	14
43	24
44	14
45	5
51	24
55	7
59	14
63	3
74	33
75	29
76	24
77	1
82	24
87	14
88	20
89	1
115	24
125	24
139	57
150	2
151	55
152	38
163	48
164	3
165	148
166	29
176	35
177	1
178	14
179	14
192	14
193	7
194	55
195	14
221	57
222	17
223	38
235	14
236	10
237	0
249	48
250	524
251	124
252	4
263	24
277	38
278	999
279	26
280	43
305	24
309	21
319	1
323	14
324	29
337	48
338	0
352	186
353	38
