Mass spectrum: 7-METHOXY(TRANS)FLAVAN-4-OL ACETATE; EI-MS
Name: 7-METHOXY-TRANS-2-PHENYLCHROMAN-4-YL ACETATE
Formula: C18H18O4
Exact mass: 298.12051
Instrument type: EI-MS
m/z	relative intensity
160	10
161	173
162	23
207	2
210	13
223	20
236	10
237	30
238	999
239	180
240	23
241	1
254	10
256	23
257	10
