Mass spectrum: BENZO(K)FLUORANTHENE; EI-MS
Name: 8,9-BENZFLUORANTHENE
Formula: C20H12
Exact mass: 252.0939
Instrument type: EI-MS
m/z	relative intensity
55	33
57	31
63	12
69	42
74	12
75	12
81	13
83	15
84	22
87	16
99	22
100	42
101	18
111	39
112	148
113	176
123	21
124	131
125	263
126	360
223	10
224	39
225	19
226	21
248	51
249	43
250	228
251	107
252	999
253	210
254	19
