Mass spectrum: ISOBUTYL PROPIONATE; EI-MS
Formula: C7H14O2
Exact mass: 130.09938
Instrument type: EI-MS
m/z	relative intensity
26	16
27	101
29	276
30	14
31	23
39	43
41	119
42	21
43	37
55	19
56	293
57	999
58	36
71	26
73	23
74	15
75	67
87	89
