Mass spectrum: 2-BUTYLPYRIDINE; EI-MS
Formula: C9H13N
Exact mass: 135.1048
Instrument type: EI-MS
m/z	relative intensity
39	100
51	89
67	72
78	9
93	999
106	269
120	148
135	29
