Mass spectrum: ISOPENTYL ACETOACETATE; EI-MS
Formula: C9H16O3
Exact mass: 172.10994
Instrument type: EI-MS
m/z	relative intensity
15	43
26	16
27	126
29	108
31	46
39	79
41	214
42	170
43	999
44	29
45	16
53	15
55	298
56	27
57	36
58	54
59	11
60	16
61	13
69	37
70	554
71	179
73	12
84	26
85	195
87	16
102	14
103	90
