Mass spectrum: 2-(4-FLUOROPHENYL)-4-PHENYLPYRIMIDINE; EI-MS
Formula: C16H11FN2
Exact mass: 250.09063
Instrument type: EI-MS
m/z	relative intensity
50	14
51	28
52	16
63	1
74	13
75	33
76	45
77	3
94	39
95	40
101	14
102	30
103	87
115	10
121	275
122	4
123	33
124	12
125	72
1255	1
126	44
129	322
130	27
139	2
147	11
173	17
222	10
249	9
250	999
251	160
252	15
269	27
