Mass spectrum: 7-METHOXY(TRANS)ISOFLAVAN-4-OL ACETATE; EI-MS
Name: 7-METHOXY-TRANS-3-PHENYLCHROMAN-4-YL ACETATE
Formula: C18H18O4
Exact mass: 298.12051
Instrument type: EI-MS
m/z	relative intensity
43	140
45	60
60	260
104	1
160	30
161	620
162	70
180	1
195	13
207	70
208	30
209	1
210	33
223	120
224	20
237	26
238	999
239	160
240	20
