Mass spectrum: P-CRESYL VALERATE; EI-MS
Name: 4-METHYLPHENYL PENTANOATE
Formula: C12H16O2
Exact mass: 192.11503
Instrument type: EI-MS
m/z	relative intensity
27	66
29	109
32	15
39	51
41	96
42	14
50	13
51	32
52	22
53	27
55	38
57	247
58	11
63	12
65	23
77	77
78	29
79	33
80	18
85	69
90	16
91	34
107	134
108	999
109	73
192	46
