Mass spectrum: 1-OCTENE; EI-MS
Formula: C8H16
Exact mass: 112.1252
Instrument type: EI-MS
m/z	relative intensity
15	16
26	15
27	256
28	65
29	413
39	231
40	37
41	762
42	588
43	999
44	54
45	33
53	60
54	89
55	925
56	687
57	287
58	43
60	68
67	70
68	75
69	444
70	613
71	140
72	28
73	39
81	37
82	64
83	269
84	159
85	52
87	16
95	16
97	54
99	36
111	26
112	73
113	23
