Mass spectrum: ISOPROPYLHYDRAZONE PROPIONALDEHYDE; EI-MS
Name: PROPIONALDEHYDE ISOPROPYLHYDRAZONE
Formula: C6H14N2
Exact mass: 114.1157
Instrument type: EI-MS
m/z	relative intensity
27	158
28	117
29	156
30	5
31	16
39	80
40	21
41	18
42	109
43	189
44	711
45	3
54	31
55	20
56	101
57	7
58	61
69	8
71	40
72	1
99	999
100	66
113	16
114	33
115	71
