Mass spectrum: 3-BENZYLAMINO-2-CYANOMETHYL-2-BUTEN-4-OLIDE; EI-MS
Formula: C13H12N2O2
Exact mass: 228.08988
Instrument type: EI-MS
m/z	relative intensity
39	30
41	17
43	7
50	8
51	24
52	20
55	7
57	10
63	17
64	8
65	87
66	11
69	11
71	6
77	16
78	10
80	12
81	6
89	22
90	12
91	999
92	96
93	5
104	14
105	7
115	7
116	6
149	11
156	7
183	5
200	11
201	7
227	11
228	353
229	60
230	6
