Mass spectrum: PYRUVIC ACID ETHYL ESTER; EI-MS
Name: 2-OXOPROPANOIC ACID ETHYL ESTER
Formula: C5H8O3
Exact mass: 116.04734
Instrument type: EI-MS
m/z	relative intensity
14	21
15	102
26	13
27	91
28	28
29	217
31	11
42	40
43	999
44	26
45	42
57	11
61	15
73	13
116	30
