Mass spectrum: N-(3-(4-NITROPHENYL)PROPIONYL)PIPERIDIN-2-ONE; EI-MS
Formula: C14H16N2O4
Exact mass: 276.11101
Instrument type: EI-MS
m/z	relative intensity
43	270
55	60
56	50
57	50
61	50
71	60
84	60
91	40
98	170
99	450
100	999
101	70
103	50
104	40
112	120
119	70
131	60
138	110
140	75
149	50
150	50
177	60
276	50
277	10
