Mass spectrum: ALPHA-CEDRENE; EI-MS
Name: 2,6,6,8-TETRAMETHYLTRICYCLO(5.3.1.0(1,5))UNDEC-8-ENE
Formula: C15H24
Exact mass: 204.1878
Instrument type: EI-MS
m/z	relative intensity
69	165
70	48
79	25
81	32
92	100
93	358
105	183
109	61
119	999
120	149
133	41
136	71
147	80
148	43
161	155
162	35
189	30
204	151
205	26
