Mass spectrum: OCTANEDIOIC ACID DIHEXYL ESTER; EI-MS
Name: DIHEXYL SUBERATE
Formula: C20H38O4
Exact mass: 342.27701
Instrument type: EI-MS
m/z	relative intensity
42	76
43	337
56	194
57	74
69	131
70	26
71	14
73	42
82	37
83	108
84	214
85	114
87	42
97	158
98	20
101	19
110	35
111	151
112	33
115	449
116	16
128	23
129	180
130	46
138	250
139	154
140	17
141	3
156	25
157	780
158	73
199	179
200	18
213	35
214	37
240	19
241	999
242	156
259	25
