Mass spectrum: PHENOXY METHYL ACETATE; EI-MS
Formula: C9H10O3
Exact mass: 166.06299
Instrument type: EI-MS
m/z	relative intensity
15	32
27	11
28	43
29	18
31	12
32	12
38	14
39	63
42	16
44	32
45	88
50	39
51	148
59	25
63	19
64	11
65	67
66	12
77	737
78	61
79	236
80	16
91	12
94	39
107	999
108	83
166	597
167	60
