Mass spectrum: ETHYL 1,1,3,3-TETRAMETHYL-1,2,3,4-TETRAHYDRO-GAMMA-CARBOLINE-5-PROPIONATE; EI-MS
Formula: C20H28N2O2
Exact mass: 328.21508
Instrument type: EI-MS
m/z	relative intensity
42	35
43	51
105	40
115	2
154	22
167	25
168	34
170	2
171	18
182	31
184	46
241	2
271	88
283	16
285	90
313	999
314	212
327	14
328	49
