Mass spectrum: ISOBUTYL 3-CYANOBENZOATE; EI-MS
Formula: C12H13NO2
Exact mass: 203.09463
Instrument type: EI-MS
m/z	relative intensity
39	43
40	13
41	145
42	38
43	87
50	26
51	45
55	30
56	773
57	56
73	21
74	11
75	66
76	44
101	10
102	295
103	57
104	11
130	999
131	92
148	178
149	19
160	11
161	10
