Mass spectrum: FURFURYLAMINE; EI-MS
Name: 2-FRANMETHANAMINE
Formula: C5H7NO
Exact mass: 97.05276
Instrument type: EI-MS
m/z	relative intensity
14	15
15	41
26	35
27	156
28	500
29	67
30	344
33.5	11
34.5	33
37	69
38	130
39	341
40	71
41	411
42	110
43	362
44	12
48	19
49	16
50	62
51	105
52	96
53	383
54	96
55	12
56	14
65	17
66	22
67	57
68	268
69	702
70	37
78	72
79	15
80	232
81	357
82	20
94	31
95	13
96	563
97	999
98	63
