Mass spectrum: 4-METHOXY-2-METHYL-2-OCTENAL; EI-MS
Formula: C10H18O2
Exact mass: 170.13068
Instrument type: EI-MS
m/z	relative intensity
27	41
29	51
39	49
41	9
43	34
45	145
53	58
55	9
59	32
67	23
69	40
71	2
81	65
83	18
85	188
95	2
112	25
113	999
114	84
141	5
170	88
171	10
