Mass spectrum: BUTANE (D10); EI-MS
Formula: C4H10
Exact mass: 58.07825
Instrument type: EI-MS
m/z	relative intensity
28	78
30	74
31	14
32	17
33	22
34	207
45	15
46	14
47	20
48	125
49	115
50	999
51	34
66	15
67	19
68	111
