Mass spectrum: BETA-PHENYLETHYLAMINE; EI-MS
Formula: C8H11N
Exact mass: 121.08915
Instrument type: EI-MS
m/z	relative intensity
28	34
30	999
31	17
39	38
50	13
51	23
63	21
65	49
77	19
89	13
91	108
92	42
103	15
121	53
