Mass spectrum: DIETHYLENE GLYCOL MONOETHYL ETHER; EI-MS
Formula: C6H14O3
Exact mass: 134.09429
Instrument type: EI-MS
m/z	relative intensity
15	39
19	24
26	12
27	134
28	32
29	165
30	10
31	409
41	14
42	11
43	122
44	67
45	999
46	19
59	326
60	84
61	18
62	13
72	231
73	126
75	65
103	26
104	38
