Mass spectrum: N,N-DIMETHYLACETAMIDE; EI-MS
Formula: C4H9NO
Exact mass: 87.06841
Instrument type: EI-MS
m/z	relative intensity
14	10
15	92
18	23
27	9
28	42
29	11
30	95
31	13
40	10
41	18
42	194
43	397
44	999
45	263
46	9
56	16
58	15
72	218
73	11
87	885
88	90
