Mass spectrum: 2,8-DIMETHYL-5-(2-(4-PYRIDYL)ETHYL)-1,2,3,4-TETRAHYDRO-GAMMA-CARBOLINE; EI-MS
Formula: C20H23N3
Exact mass: 305.1892
Instrument type: EI-MS
m/z	relative intensity
77	22
91	12
106	12
115	4
116	14
127	24
128	52
129	2
154	64
155	43
156	43
157	58
158	60
169	36
170	895
171	7
182	20
183	14
195	19
197	4
211	46
212	27
213	46
247	1
261	23
262	999
263	150
304	47
305	640
