Mass spectrum: P-BROMOACETOPHENONE; EI-MS
Formula: C8H7BrO
Exact mass: 197.96803
Instrument type: EI-MS
m/z	relative intensity
39	130
40	33
41	79
42	8
43	999
44	38
49	121
50	87
51	221
52	46
53	50
54	3
55	46
60	29
61	63
62	9
63	125
64	46
65	46
73	8
74	800
75	742
76	804
77	12
78	33
79	38
89	79
90	6
91	71
104	104
105	42
106	3
107	29
155	229
156	42
157	21
158	38
169	29
171	29
183	35
184	50
185	338
186	49
198	13
199	33
200	121
201	33
