Mass spectrum: 8ALPHA-(3-HYDROXY-1-METHOXY-1-METHYL)PROPYL-6,6-DIMETHYL-1ALPHA,5ALPHA-BICYCLO(3.3.0)OCTAN-2-ONE; EI-MS
Formula: C15H26O3
Exact mass: 254.18819
Instrument type: EI-MS
m/z	relative intensity
83	25
85	41
86	30
96	4
102	106
103	999
104	99
105	2
133	23
149	21
177	64
189	7
195	18
204	48
207	44
209	64
210	100
221	21
222	28
224	3
236	25
254	21
73	39
