Mass spectrum: METHSUXIMIDE; EI-MS
Name: 1,3-DIMETHYL-3-PHENYL-2,5-PYRROLIDINEDIONE
Formula: C12H13NO2
Exact mass: 203.09463
Instrument type: EI-MS
m/z	relative intensity
51	32
52	85
53	15
55	17
57	13
58	42
63	28
65	26
74	10
75	17
76	20
77	143
78	128
79	15
89	16
90	13
91	83
92	10
102	34
103	179
104	18
115	80
116	26
117	351
118	999
119	111
149	13
203	271
204	43
