Mass spectrum: 3-METHYL-1-PHENYL-3-BUTANOL; EI-MS
Formula: C11H16O
Exact mass: 164.12012
Instrument type: EI-MS
m/z	relative intensity
15	12
27	31
29	16
31	71
39	64
41	52
43	126
50	17
51	65
52	14
53	13
55	11
58	30
59	999
60	31
63	28
65	102
77	95
78	100
79	45
89	20
91	883
92	68
103	36
104	37
105	74
106	45
115	12
116	12
117	13
129	13
131	598
132	55
145	16
146	550
147	78
149	99
