Mass spectrum: 4-DIMETHYLAMINO-2-(4-FLUOROPHENYL)PYRIMIDINE; EI-MS
Formula: C12H12FN3
Exact mass: 217.10153
Instrument type: EI-MS
m/z	relative intensity
52	91
53	141
54	62
55	1
57	9
66	9
67	59
68	4
69	18
70	9
73	7
75	4
80	22
81	73
83	7
87	3
87.5	7
94	37
95	118
96	1
98.5	7
100.5	14
101	6
102	1
108	49
108.5	96
109	6
121	7
122	357
123	42
133	16
134	1
148	10
161	9
173	362
174	21
175	36
187	13
188	927
189	10
190	13
202	476
203	67
204	1
216	26
217	999
218	138
219	7
