Mass spectrum: OCTYLAMINE; EI-MS
Name: 1-OCTANAMINE
Formula: C8H19N
Exact mass: 129.15175
Instrument type: EI-MS
m/z	relative intensity
41	961
42	328
43	504
44	999
45	732
53	65
54	56
55	464
56	381
57	119
58	44
59	190
67	46
68	48
69	330
70	189
71	35
72	174
73	69
82	38
83	128
84	110
86	447
87	53
100	213
112	47
114	37
128	93
129	353
130	52
