Mass spectrum: PROPENOIC ACID; EI-MS
Name: ACRYLIC ACID
Formula: C3H4O2
Exact mass: 72.02113
Instrument type: EI-MS
m/z	relative intensity
15	13
25	68
26	469
27	998
28	172
29	46
43	58
44	240
45	321
46	22
53	44
54	14
55	741
56	22
71	55
72	999
73	44
