Mass spectrum: 1-BENZENESULFONYL-5-FLUOROURACIL; EI-MS
Formula: C10H7FN2O4S
Exact mass: 270.01106
Instrument type: EI-MS
m/z	relative intensity
29	50
38	50
43	20
44	1
45	10
50	120
51	280
52	1
58	110
74	50
75	50
76	1
77	999
78	190
87	50
91	0
94	60
97	40
104	50
114	1
115	50
116	50
125	70
130	1
134	10
135	20
141	810
142	1
143	120
163	50
206	330
207	1
270	160
271	50
