Mass spectrum: ACETALDEHYDE DIHEXYL ACETAL; EI-MS
Formula: C14H30O2
Exact mass: 230.22458
Instrument type: EI-MS
m/z	relative intensity
27	90
28	23
29	156
31	21
39	36
40	11
41	243
42	93
43	836
44	27
45	177
53	10
55	109
56	87
57	127
58	11
69	21
71	18
83	10
85	999
86	67
111	11
129	631
130	43
131	29
215	80
