Mass spectrum: BENZALDEHYDE DIMETHYL ACETAL; EI-MS
Formula: C9H12O2
Exact mass: 152.08373
Instrument type: EI-MS
m/z	relative intensity
15	29
29	38
31	13
39	27
47	27
50	38
51	103
52	25
59	26
63	19
65	15
74	12
75	112
76	11
77	311
78	50
89	20
91	139
92	11
105	121
106	13
121	999
122	93
152	15
