Mass spectrum: ORTHO-AMINOTHIOPHENOL; EI-MS
Name: 2-MERCAPTOANILINE
Formula: C6H7NS
Exact mass: 125.02992
Instrument type: EI-MS
m/z	relative intensity
27	58
28	52
29	27
37	59
38	109
39	250
40	44
41	96
42	41
43	31
44	34
45	194
50	72
51	107
52	145
53	207
54	62
57	59
58	46
60	40
61	36
61.5	27
62	59
62.5	43
63	133
64	70
65	169
66	85
67	29
69	152
70	82
71	39
80	418
81	212
82	44
91	37
92	46
93	267
94	45
95	31
96	35
97	165
98	99
99	37
108	41
124	202
125	999
126	107
127	50
