Mass spectrum: 3-METHYLBENZOIC ACID METHYL ESTER; EI-MS
Formula: C9H10O2
Exact mass: 150.06808
Instrument type: EI-MS
m/z	relative intensity
45	21
50	17
51	35
53	1
59	25
62	28
63	50
65	15
66	10
74	25
89	46
90	4
91	579
92	35
106	14
110	1
118	14
119	999
120	82
133	1
135	21
149	10
150	345
151	3
152	17
