Mass spectrum: 2,3-DIMETHYL-1-(2-FURYL)-3-BUTEN-1-ONE; EI-MS
Formula: C10H12O2
Exact mass: 164.08373
Instrument type: EI-MS
m/z	relative intensity
26	11
27	145
29	33
36	13
37	21
38	77
39	619
41	634
42	41
43	53
44	15
50	21
51	71
52	23
53	113
54	21
55	52
56	11
57	13
63	17
65	33
66	22
67	108
68	94
69	156
70	17
77	44
78	13
79	25
80	14
81	59
82	14
91	43
92	12
93	43
94	19
95	999
96	252
97	32
107	45
108	13
110	48
121	165
122	28
123	16
124	28
135	23
136	866
137	90
149	244
150	25
164	53
