Mass spectrum: METHYL 5-ETHYNYLPYRIDINE-2-CARBOXYLATE; EI-MS
Formula: C9H7NO2
Exact mass: 161.04768
Instrument type: EI-MS
m/z	relative intensity
39	127
40	12
41	37
43	3
50	534
51	646
52	200
53	6
59	123
62	78
63	137
64	2
73	78
74	413
75	897
76	72
77	69
78	41
89	23
101	1
102	528
103	999
116	18
117	2
130	183
131	614
136	38
161	14
162	21
