Mass spectrum: 2,5-DIMETYLFURAN; EI-MS
Formula: C6H8O
Exact mass: 96.05751
Instrument type: EI-MS
m/z	relative intensity
26	11
27	259
28	10
39	99
40	31
41	200
42	31
43	999
44	31
47	31
50	12
51	79
52	160
53	850
54	79
55	22
63	11
65	52
66	32
67	180
68	32
79	40
80	22
81	451
82	35
94	60
95	612
96	780
97	80
