Mass spectrum: TETRAHYDROFURFURYL ALCOHOL; EI-MS
Formula: C5H10O2
Exact mass: 102.06808
Instrument type: EI-MS
m/z	relative intensity
15	30
26	18
27	219
28	13
29	145
30	10
31	181
38	13
39	132
40	24
41	338
42	124
43	624
44	87
45	10
53	15
55	16
57	33
61	13
70	38
71	999
72	46
