Mass spectrum: ETHYL 3-CHLOROBENZOATE; EI-MS
Formula: C9H9ClO2
Exact mass: 184.02911
Instrument type: EI-MS
m/z	relative intensity
26	15
27	89
29	111
30	1
39	10
43	13
45	63
50	10
51	77
65	21
74	53
75	27
76	95
77	105
78	10
85	3
87	10
104	20
105	165
106	2
110	11
111	397
112	43
113	13
114	12
122	50
139	999
140	13
141	330
142	38
149	37
150	5
156	482
157	40
158	157
159	1
166	34
168	10
169	32
183	2
184	363
185	41
186	121
