Mass spectrum: TRIMETHYLENE OXIDE; EI-MS
Formula: C3H6O
Exact mass: 58.04186
Instrument type: EI-MS
m/z	relative intensity
25	13
26	130
27	204
28	999
29	171
30	36
31	79
37	10
38	13
39	15
57	61
58	480
59	18
