Mass spectrum: ISOPROPYL ACETATE; EI-MS
Formula: C5H10O2
Exact mass: 102.06808
Instrument type: EI-MS
m/z	relative intensity
15	78
27	72
29	23
31	14
39	54
41	110
42	65
43	999
44	26
45	35
59	83
61	184
87	100
