Mass spectrum: 6-METHOXY-2-PHENETHYLCHROMONE; EI-MS
Name: 6-METHOXY-2-PHENETHYL-4H-CHROMEN-4-ONE
Formula: C18H16O3
Exact mass: 280.10994
Instrument type: EI-MS
m/z	relative intensity
57	11
81	25
91	999
92	93
123	10
129	14
135	12
137	12
150	31
151	25
161	35
189	12
250	18
251	13
279	67
280	902
281	185
282	23
