Mass spectrum: METHYL SALICY LATE; EI-MS
Formula: C8H8O3
Exact mass: 152.04734
Instrument type: EI-MS
m/z	relative intensity
15	60
27	20
29	41
30	10
31	16
37	23
38	71
39	251
50	29
51	19
53	88
61	16
62	42
63	158
64	156
65	252
66	24
74	13
76	14
77	11
81	16
92	647
93	137
120	999
121	301
122	18
152	445
153	32
