Mass spectrum: ACETIC ACID HEXYL ESTER; EI-MS
Name: HEXYL ACETATE
Formula: C8H16O2
Exact mass: 144.11503
Instrument type: EI-MS
m/z	relative intensity
15	37
27	71
28	28
29	74
31	10
39	49
40	11
41	171
42	190
43	999
44	28
54	16
55	236
56	515
57	36
58	33
61	221
69	166
70	12
71	13
73	90
83	28
84	184
85	17
101	12
