Mass spectrum: 2-HEXANOL; EI-MS
Formula: C6H14O
Exact mass: 102.10447
Instrument type: EI-MS
m/z	relative intensity
27	12
29	27
31	10
41	90
42	26
43	91
44	79
45	999
46	26
55	39
56	44
57	30
69	229
70	13
84	96
85	112
87	113
101	12
102	1
