Mass spectrum: 9-METHYL-10-VINYLANTHRACENE; EI-MS
Formula: C17H14
Exact mass: 218.10955
Instrument type: EI-MS
m/z	relative intensity
39	33
51	25
57	25
63	5
75	25
81	42
82	25
87	3
100	50
100.5	42
101	275
101.5	17
102	33
106.5	92
107	108
108	13
108.5	42
109	100
109.5	25
176	3
187	25
189	75
200	33
201	5
202	525
203	999
204	183
205	3
213	67
214	25
215	158
216	6
217	208
218	467
219	92
