Mass spectrum: QUINOLINE; EI-MS
Formula: C9H7N
Exact mass: 129.05785
Instrument type: EI-MS
m/z	relative intensity
57	4
63	8
75	8
76	55
77	22
78	26
79	5
89	3
101	47
102	238
103	74
104	3
127	14
128	174
129	999
130	125
131	6
