Mass spectrum: MONOACETIN; EI-MS
Name: GLYCEROL 1-ACETATE
Formula: C5H10O4
Exact mass: 134.05791
Instrument type: EI-MS
m/z	relative intensity
43	999
44	53
56	13
61	34
73	29
74	83
86	47
103	520
104	25
116	15
