Mass spectrum: DIISOPENTYL ETHER; EI-MS
Formula: C10H22O
Exact mass: 158.16707
Instrument type: EI-MS
m/z	relative intensity
27	137
28	20
29	141
31	22
39	90
40	11
41	272
42	110
43	999
44	39
45	86
53	20
55	216
56	38
57	27
69	402
70	855
71	706
72	39
101	150
