Mass spectrum: GERANIAL; EI-MS
Name: (E)-3,7-DIMETHYL-2,6-OCTADIENAL
Formula: C10H16O
Exact mass: 152.12012
Instrument type: EI-MS
m/z	relative intensity
55	46
59	80
69	999
70	101
83	90
84	446
94	198
95	57
109	128
119	29
123	110
137	79
152	60
