Mass spectrum: BENZYL BUTYRATE; EI-MS
Formula: C11H14O2
Exact mass: 178.09938
Instrument type: EI-MS
m/z	relative intensity
41	13
43	185
65	20
71	308
72	15
77	11
79	66
89	13
90	117
91	624
92	57
105	13
107	77
108	999
109	86
128	11
178	365
179	46
