Mass spectrum: METHYL 3-HYDROXY-4-METHYLENECYCLOHEXANECARBOXYLATE; EI-MS
Formula: C9H14O3
Exact mass: 170.09429
Instrument type: EI-MS
m/z	relative intensity
42	321
43	278
53	107
55	554
56	67
59	110
66	87
67	258
68	67
69	198
77	149
79	101
81	185
82	136
83	88
84	126
87	642
91	159
92	140
93	624
95	234
109	116
110	619
111	999
112	74
138	159
139	76
170	99
