Mass spectrum: DIMETHYL FUMARATE; EI-MS
Name: FUMARIC ACID DIMETHYL ESTER
Formula: C6H8O4
Exact mass: 144.04226
Instrument type: EI-MS
m/z	relative intensity
14	11
15	308
25	14
26	145
27	40
28	70
29	68
30	20
31	24
39	43
41	45
42	14
43	20
44	20
53	139
54	106
55	31
56	19
59	277
69	14
71	14
81	37
82	51
83	11
85	426
86	21
99	15
100	21
113	999
114	181
115	17
144	31
