Mass spectrum: METHYL UNDECANOATE; EI-MS
Formula: C12H24O2
Exact mass: 200.17763
Instrument type: EI-MS
m/z	relative intensity
15	39
27	82
29	126
39	60
41	263
42	62
43	238
45	12
53	16
54	13
55	194
56	36
57	81
59	104
67	15
69	89
70	16
71	23
73	16
74	999
75	109
81	10
83	37
84	24
85	16
87	521
88	50
97	21
98	19
101	51
115	19
129	33
143	69
157	53
169	58
171	15
200	26
