Mass spectrum: PARA-XYLENE; EI-MS
Name: 1.4-DIMETHYLBENZENE
Formula: C8H10
Exact mass: 106.07825
Instrument type: EI-MS
m/z	relative intensity
27	71
38	20
39	124
40	14
41	21
44	12
50	59
51	141
52	60
53	42
62	22
63	59
64	12
65	76
66	11
74	16
75	12
76	11
77	145
78	70
79	81
89	22
91	999
92	81
102	14
103	63
104	32
105	296
106	697
107	61
