Mass spectrum: DL-PARA-ALPHA-BIS(TRIMETHYLSILYL)OXY-PHENYLACETIC ACID TRIMETHYLSILYL ESTER; EI-MS
Name: TRIMETHYLSILYL ALPHA-TRIMETHYLSILOXY-ALPHA-(4-TRIMETHYLSILOXYPHENYL)ACETATE
Formula: C17H32O4Si3
Exact mass: 384.16084
Instrument type: EI-MS
m/z	relative intensity
45	94
73	739
74	60
75	10
148	131
193	64
267	999
268	23
269	85
341	50
