Mass spectrum: DIETHYL MALONATE; EI-MS
Formula: C7H12O4
Exact mass: 160.07356
Instrument type: EI-MS
m/z	relative intensity
14	27
15	33
26	22
27	18
28	52
29	975
30	32
31	8
41	39
42	253
43	679
44	3
45	158
47	39
55	26
59	3
60	206
61	100
69	37
70	6
73	45
86	28
87	123
88	31
89	43
101	40
105	59
114	3
115	999
116	64
132	33
133	64
134	45
166	53
167	31
