Mass spectrum: 2-ACETOXYNITROBENZENE; EI-MS
Formula: C8H7NO4
Exact mass: 181.03751
Instrument type: EI-MS
m/z	relative intensity
14	12
15	68
30	36
38	33
39	40
42	23
43	999
44	30
50	20
51	22
52	18
53	17
62	18
63	68
64	47
65	47
81	30
92	13
93	21
94	9
106	14
109	25
122	12
123	15
139	373
140	27
181	30
