Mass spectrum: ALPHA-BROMOALLYLTRIMETHYLSILANE; EI-MS
Formula: C6H13BrSi
Exact mass: 191.99699
Instrument type: EI-MS
m/z	relative intensity
41	26
43	319
45	264
46	11
58	127
59	329
60	13
73	999
74	292
75	36
93	16
97	58
98	10
113	33
123	28
125	26
133	18
149	32
151	37
192	12
194	17
