Mass spectrum: PARA-AMINOBENZOIC ACID BUTYL ESTER; EI-MS
Name: BUTYL 4-AMINOBENZOATE
Formula: C11H15NO2
Exact mass: 193.11028
Instrument type: EI-MS
m/z	relative intensity
27	16
29	23
39	51
41	40
43	16
55	17
57	16
63	22
64	24
65	158
66	41
91	33
92	211
93	82
106	62
107	41
108	23
119	38
120	999
121	92
137	876
138	81
193	117
194	15
