Mass spectrum: BENZYLACETOPHENONE; EI-MS
Name: 3-PHENYLPROPIOPHENONE
Formula: C15H14O
Exact mass: 210.10447
Instrument type: EI-MS
m/z	relative intensity
18	17
27	24
39	30
50	29
51	105
52	15
63	16
65	34
76	16
77	434
78	47
79	25
89	10
91	90
103	30
104	43
105	999
106	68
209	17
210	329
211	49
