Mass spectrum: 2-METHOXYPYRIDINE; EI-MS
Formula: C6H7NO
Exact mass: 109.05276
Instrument type: EI-MS
m/z	relative intensity
15	70
26	53
27	78
28	48
29	45
37	67
38	194
39	420
40	55
41	18
42	39
49	20
50	119
51	246
52	546
53	113
54	13
55	14
64	43
65	34
66	91
67	11
75	14
76	22
78	212
79	999
80	310
81	22
93	15
108	814
109	714
110	51
