Mass spectrum: TRIETHYL ORTHOBENZOATE; EI-MS
Formula: C13H20O3
Exact mass: 224.14124
Instrument type: EI-MS
m/z	relative intensity
15	21
27	110
28	150
29	200
30	19
31	25
43	32
44	33
45	30
50	26
51	106
63	52
69	40
76	23
77	340
78	49
79	250
80	21
91	46
105	480
106	63
107	20
119	24
122	66
123	650
124	58
147	55
150	14
151	350
152	32
179	999
180	130
181	14
