Mass spectrum: METHYL 2-TRIMETHYLSILOXYHENEICOSANOATE; EI-MS
Name: METHYL (O-TRIMETHYLSILYL)-ALPHA-HYDROXYHENEICOSANOATE
Formula: C25H52O3Si
Exact mass: 428.36857
Instrument type: EI-MS
m/z	relative intensity
41	107
42	28
43	254
45	24
54	15
55	139
56	26
57	212
58	15
59	74
61	15
67	54
68	26
69	128
70	23
71	112
72	16
73	694
74	68
75	177
76	15
81	62
82	37
83	162
84	19
85	62
87	19
89	297
90	25
91	62
95	63
97	139
98	15
99	15
101	35
103	186
104	18
105	20
107	13
109	35
110	10
111	65
115	32
116	23
117	19
119	19
123	16
125	22
129	167
130	21
131	25
143	21
145	25
146	22
159	109
160	10
161	13
162	20
185	13
369	999
370	304
371	76
385	35
413	320
414	102
415	25
428	18
