Mass spectrum: 2-CARBOXY-5-OCTYLPYRIDINE 1-OXIDE; EI-MS
Formula: C14H21NO3
Exact mass: 251.15214
Instrument type: EI-MS
m/z	relative intensity
51	10
52	10
53	30
55	4
57	45
64	10
65	54
66	1
67	25
77	35
78	35
79	4
80	20
81	10
91	108
92	23
93	110
104	42
105	60
106	22
107	40
108	82
109	484
110	5
117	35
118	50
119	105
120	4
121	10
122	676
123	135
124	2
130	10
131	10
132	72
133	3
134	55
135	234
136	210
137	17
138	21
146	30
147	10
148	9
149	25
150	302
151	75
152	1
153	524
154	50
162	35
163	1
164	145
165	10
166	999
167	17
168	10
178	95
179	42
180	13
181	10
188	35
189	20
190	16
191	35
192	100
193	10
194	6
195	25
202	20
204	20
205	2
206	165
207	315
208	170
209	4
216	35
217	30
222	85
223	3
234	65
235	40
236	40
250	11
251	335
252	50
