Mass spectrum: ETHYLENE GLYCOL DIMETHYL ETHER; EI-MS
Name: 1.2-DIMETHOXYETHANE
Formula: C4H10O2
Exact mass: 90.06808
Instrument type: EI-MS
m/z	relative intensity
14	11
15	159
27	34
28	41
29	151
31	62
42	11
43	48
45	999
46	24
58	61
59	26
60	115
90	75
