Mass spectrum: ISOPENTYL CINNAMATE; EI-MS
Formula: C14H18O2
Exact mass: 218.13068
Instrument type: EI-MS
m/z	relative intensity
29	36
41	52
42	118
43	203
55	279
56	10
57	10
69	79
70	999
71	76
77	100
78	10
81	41
91	22
102	60
103	562
104	132
105	26
115	41
120	37
131	977
132	141
133	10
146	164
147	412
148	696
149	647
150	57
175	12
218	97
219	10
