Mass spectrum: DIETHYLENE GLYCOL; EI-MS
Formula: C4H10O3
Exact mass: 106.06299
Instrument type: EI-MS
m/z	relative intensity
15	50
18	23
19	92
27	13
28	95
29	110
31	135
43	10
44	92
45	999
46	29
75	18
76	92
