Mass spectrum: BENZALDEHYDE-4-CARBOXYLIC ACID TRIMETHYLSILYL ESTER; EI-MS
Name: TRIMETHYLSILYL 4-FORMYLBENZOATE
Formula: C11H14O3Si
Exact mass: 222.07122
Instrument type: EI-MS
m/z	relative intensity
45	90
47	70
50	90
51	21
73	200
74	55
75	165
76	14
77	350
89	100
103	140
104	8
105	350
133	965
134	105
135	5
163	680
164	100
207	999
208	18
209	60
222	100
