Mass spectrum: 4'-METHOXY-6,8-DIMETHYLFLAVONOL; EI-MS
Name: 3-HYDROXY-2-(4-METHOXYPHENYL)-6,8-DIMETHYL-4H-CHROMEN-4-ONE
Formula: C18H16O4
Exact mass: 296.10486
Instrument type: EI-MS
m/z	relative intensity
77	48
91	37
135	23
148	8
149	91
225	46
253	30
281	8
295	167
296	999
297	169
