Mass spectrum: 2-ETHYLTETRAHYDROFURAN; EI-MS
Formula: C6H12O
Exact mass: 100.08882
Instrument type: EI-MS
m/z	relative intensity
27	32
28	25
29	64
31	2
41	135
42	162
43	471
44	2
55	51
56	59
58	14
59	4
70	70
71	999
72	49
99	1
100	44
