Mass spectrum: CYCLOPENTANONE; EI-MS
Formula: C5H8O
Exact mass: 84.05751
Instrument type: EI-MS
m/z	relative intensity
14	13
15	27
26	146
27	355
28	544
29	91
37	19
38	41
39	250
40	33
41	452
42	195
43	36
50	32
51	27
52	11
53	31
54	14
55	999
56	303
57	16
83	13
84	394
85	21
