Mass spectrum: CAFFEINE; EI-MS
Formula: C8H10N4O2
Exact mass: 194.08038
Instrument type: EI-MS
m/z	relative intensity
28	14
55	79
67	97
68	10
82	93
83	14
108	10
109	23
110	86
123	29
138	14
165	3
193	56
194	999
195	197
196	17
