Mass spectrum: TETRAMETHYLENEHYDRAZONE ACETALDEHYDE; EI-MS
Name: ACETALDEHYDE TETRAMETHYLENEHYDRAZONE
Formula: C6H12N2
Exact mass: 112.10005
Instrument type: EI-MS
m/z	relative intensity
27	194
28	388
29	40
30	5
32	6
38	7
39	78
40	3
41	284
42	999
43	239
44	3
53	11
54	8
55	39
56	8
57	46
67	5
68	48
69	6
70	194
71	36
82	5
83	1
84	20
97	149
98	8
110	1
111	448
112	552
113	37
