Mass spectrum: N-ACETYLVALYLGLYCYLALANINE METHYL ESTER; EI-MS
Formula: C13H23N3O5
Exact mass: 301.16377
Instrument type: EI-MS
m/z	relative intensity
44	81
60	27
72	331
73	24
100	41
101	10
104	34
113	165
114	999
115	499
116	40
129	86
130	86
142	99
143	11
145	44
156	10
160	12
161	44
173	98
174	13
187	18
199	194
200	26
242	239
243	39
259	43
301	30
302	37
