Mass spectrum: 3-HEXENYL METHYL ETHER; EI-MS
Formula: C7H14O
Exact mass: 114.10447
Instrument type: EI-MS
m/z	relative intensity
15	14
27	86
29	53
39	89
41	336
42	24
43	37
45	31
53	32
55	45
56	23
57	11
58	50
67	29
69	17
71	999
72	49
82	26
85	42
114	205
115	14
