Mass spectrum: 2-(4-ISOBUTYLPHENYL)PROPIONIC ACID; EI-MS
Formula: C13H18O2
Exact mass: 206.13068
Instrument type: EI-MS
m/z	relative intensity
27	84
29	41
39	96
41	194
43	167
45	21
51	51
52	1
53	28
55	31
57	66
63	3
64	15
65	66
77	108
78	4
79	48
89	32
90	14
91	67
92	59
93	26
102	19
103	7
104	53
105	130
106	14
107	42
108	33
115	124
116	44
117	31
118	255
119	543
120	58
128	3
129	19
131	32
133	27
145	5
161	940
162	132
163	999
164	23
165	23
206	450
207	67
