Mass spectrum: 1H-TETRAZOLE; EI-MS
Formula: CH2N4
Exact mass: 70.02795
Instrument type: EI-MS
m/z	relative intensity
12	54
13	208
14	152
15	65
18	17
26	52
27	188
28	322
29	465
40	22
41	206
42	999
43	53
70	12
71	5
