Mass spectrum: 1-ADAMANTOIC ACID METHYL ESTER; EI-MS
Name: METHYL ADAMANTANE-1-CARBOXYLATE
Formula: C12H18O2
Exact mass: 194.13068
Instrument type: EI-MS
m/z	relative intensity
52	10
53	32
55	16
56	1
65	38
67	86
69	27
77	4
78	16
79	152
80	21
81	7
91	54
93	146
94	21
107	10
133	10
135	999
136	114
186	1
194	130
195	16
