Mass spectrum: ISOPROPYL ACETATE; EI-MS
Formula: C5H10O2
Exact mass: 102.06808
Instrument type: EI-MS
m/z	relative intensity
27	22
41	64
42	80
43	999
44	27
45	29
59	139
61	371
62	10
87	191
88	10
102	9
