Mass spectrum: 2,2-DIMETHYL-3-(2-METHYL-1-PROPENYL)CYCLOPROPANECARBOXYLIC ACID; EI-MS
Formula: C10H16O2
Exact mass: 168.11503
Instrument type: EI-MS
m/z	relative intensity
27	108
29	92
39	163
41	38
43	327
45	39
51	39
53	11
55	182
56	31
57	85
59	5
65	61
67	224
68	33
69	32
77	78
79	149
81	635
82	6
83	66
85	33
91	135
93	7
95	124
97	34
100	39
105	3
107	225
108	52
109	70
111	8
112	33
123	999
124	110
125	21
135	47
153	272
168	363
169	36
