Mass spectrum: 2,3-DIMETHYLBUTANOL; EI-MS
Formula: C6H14O
Exact mass: 102.10447
Instrument type: EI-MS
m/z	relative intensity
27	104
28	86
29	129
31	17
32	17
39	84
40	13
41	33
42	273
43	999
44	32
45	12
53	19
55	125
56	77
57	5
58	15
59	58
61	11
69	29
70	117
71	558
72	35
84	20
85	18
