Mass spectrum: ISOBUTYL PROPIONATE; EI-MS
Formula: C7H14O2
Exact mass: 130.09938
Instrument type: EI-MS
m/z	relative intensity
15	11
26	13
27	107
28	42
29	345
31	26
39	42
41	15
43	44
55	23
56	361
57	999
58	38
71	38
73	29
74	17
75	93
87	104
100	14
