Mass spectrum: N-PHENYLACETYLPIPERIDIN-2-ONE; EI-MS
Formula: C13H15NO2
Exact mass: 217.11028
Instrument type: EI-MS
m/z	relative intensity
43	10
55	70
56	40
70	10
71	10
82	20
89	20
90	140
91	100
92	10
98	25
99	20
100	130
101	20
118	999
119	90
120	10
217	60
218	10
