Mass spectrum: 6-FORMYL-2,3-DIMETHYLINDOLE; EI-MS
Formula: C11H11NO
Exact mass: 173.08406
Instrument type: EI-MS
m/z	relative intensity
45	524
51	150
55	117
63	6
70	106
80	184
91	39
92	3
97	30
104	13
107	20
108	4
109	50
121	111
122	24
123	2
133	33
134	39
135	18
147	5
148	150
149	250
150	20
153	1
161	250
162	14
173	999
174	116
