Mass spectrum: BUTANE (1-D1); EI-MS
Formula: C4H10
Exact mass: 58.07825
Instrument type: EI-MS
m/z	relative intensity
26	41
27	265
28	310
29	41
30	203
38	16
39	104
40	7
41	191
42	262
43	230
44	999
45	32
50	13
51	14
52	1
56	40
58	34
59	186
