Mass spectrum: DIETHYL SUCCINATE; EI-MS
Formula: C8H14O4
Exact mass: 174.08921
Instrument type: EI-MS
m/z	relative intensity
55	282
56	176
57	59
60	11
73	249
74	169
75	34
98	14
99	84
101	178
103	15
128	236
129	999
130	72
147	30
174	26
