Mass spectrum: BENZIL; EI-MS
Formula: C14H10O2
Exact mass: 210.06808
Instrument type: EI-MS
m/z	relative intensity
50	44
51	155
74	15
75	11
76	18
77	430
78	32
105	999
106	91
210	66
211	11
