Mass spectrum: 2-HYDROXY-5-METHOXY-3-(10-PENTADECENYL)-PARA-BENZOQUINONE; EI-MS
Name: MAESANINE
Formula: C22H34O4
Exact mass: 362.24571
Instrument type: EI-MS
m/z	relative intensity
39	58
41	380
42	49
43	166
53	56
54	65
55	533
56	53
57	62
67	166
69	206
79	49
81	131
83	78
95	102
109	57
125	58
139	204
140	41
141	72
149	55
153	201
154	54
155	101
156	97
163	53
167	279
168	999
169	843
170	124
179	40
182	74
193	85
348	54
362	954
363	266
364	223
365	47
