Mass spectrum: 6-METHYL-4-OXO-4H-PYRIDO(1,2-A)PYRIMIDINE-3-ACETIC ACID ETHYL ESTER; EI-MS
Formula: C13H14N2O3
Exact mass: 246.10044
Instrument type: EI-MS
m/z	relative intensity
39	54
55	62
65	100
66	2
72.5	27
86.5	27
91	27
92	30
93	54
117	14
119	49
143	4
144	16
145	185
146	24
159	3
172	250
173	999
174	116
175	1
189	11
200	108
201	87
202	1
217	11
246	312
247	48
