Mass spectrum: 2,5-HEXANEDIONE; EI-MS
Name: ACETONYLACETONE
Formula: C6H10O2
Exact mass: 114.06808
Instrument type: EI-MS
m/z	relative intensity
27	12
29	24
41	25
42	10
43	999
44	39
45	11
53	10
55	11
57	78
71	195
72	46
99	296
100	10
114	53
