Mass spectrum: 4-PHENYLBICYCLO(3.2.2)NONA-3,6-DIEN-2-ONE; EI-MS
Formula: C15H14O
Exact mass: 210.10447
Instrument type: EI-MS
m/z	relative intensity
17	55
18	662
28	314
32	9
43	100
58	35
77	49
78	6
79	100
80	63
91	259
92	4
102	51
103	178
104	177
105	62
106	59
107	33
115	61
116	3
118	29
119	41
128	86
129	2
131	220
132	116
133	88
141	13
142	51
152	67
153	98
154	18
155	59
165	177
166	198
167	60
168	116
169	41
178	39
179	7
181	167
182	79
183	20
191	19
192	523
193	84
194	41
195	15
196	31
209	271
210	999
211	136
