Mass spectrum: NICOTINAMIDE; EI-MS
Formula: C6H6N2O
Exact mass: 122.04801
Instrument type: EI-MS
m/z	relative intensity
16	9
17	7
18	16
26	22
27	21
28	51
29	4
37	18
38	25
39	30
40	9
41	9
42	3
43	9
44	138
45	4
48	3
49	36
50	183
51	320
52	133
53	36
66	7
67	7
75	22
76	31
77	60
78	605
79	78
80	4
93	5
94	32
95	3
104	5
105	66
106	609
107	45
108	3
121	1
122	999
123	103
124	7
