Mass spectrum: 4-(3-(4-(2-TRIMETHYLSILYLOXYETHOXY)PHENOXY)PROPYL)MORPHORINE; EI-MS
Formula: C18H31NO4Si
Exact mass: 353.20224
Instrument type: EI-MS
m/z	relative intensity
43	16
70	67
71	11
73	34
84	8
86	15
87	16
97	10
98	24
100	999
101	60
113	27
117	15
127	21
128	950
129	78
143	5
144	16
149	6
206	2
338	37
339	5
353	23
