Mass spectrum: DIPROPYLENE GLYCOL DIBENZOATE; EI-MS
Formula: C20H22O5
Exact mass: 342.14672
Instrument type: EI-MS
m/z	relative intensity
45	38
51	72
57	55
58	123
72	41
77	321
78	26
103	4
105	999
106	93
116	23
122	5
123	81
163	845
164	95
194	5
207	81
208	13
220	31
