Mass spectrum: PROPANAL ETHYL ISOPENTYL ACETAL; EI-MS
Name: PROPANAL ETHYL ISOAMYL ACETAL
Formula: C10H22O2
Exact mass: 174.16198
Instrument type: EI-MS
m/z	relative intensity
15	13
27	173
28	32
29	27
30	14
31	174
39	64
40	1
41	243
42	41
43	806
44	3
45	26
47	131
53	14
55	13
56	14
57	54
58	29
59	58
60	17
69	11
70	13
71	999
72	45
75	160
87	780
88	4
129	63
145	165
146	13
