Mass spectrum: 5ALPHA-CHOLESTAN-3ALPHA-OL; EI-MS
Name: EPICHOLESTANOL
Formula: C27H48O
Exact mass: 388.37052
Instrument type: EI-MS
m/z	relative intensity
39	41
40	45
41	339
42	55
43	596
44	45
45	11
53	57
54	25
55	568
56	92
57	435
58	25
59	10
65	28
66	19
67	366
68	138
69	374
70	65
71	188
72	11
74	19
77	79
78	22
79	317
80	82
81	573
82	138
83	234
84	38
85	59
87	14
91	222
92	60
93	408
94	181
95	543
96	83
97	160
98	21
99	25
101	12
104	21
105	247
106	147
107	540
108	418
109	369
110	73
111	115
112	17
113	28
115	30
117	39
118	26
119	184
120	138
121	320
122	224
123	226
124	177
125	58
126	11
127	10
128	30
129	17
131	68
132	26
133	183
134	114
135	247
136	112
137	95
138	48
139	14
143	15
144	10
145	112
146	43
147	287
148	202
149	325
150	51
151	48
152	28
153	10
157	11
159	83
160	64
161	167
162	86
163	89
164	42
165	537
166	179
167	35
171	10
173	74
174	37
175	81
176	41
177	40
178	34
179	24
180	10
185	10
187	53
188	32
189	46
190	75
191	52
192	27
193	18
198	31
199	30
200	13
201	119
202	33
203	52
204	28
205	39
206	41
207	14
208	23
213	17
214	12
215	837
216	328
217	447
218	84
219	149
220	41
229	33
230	96
231	173
232	107
233	999
234	647
235	106
236	10
243	12
246	19
247	28
248	178
249	35
255	14
257	74
258	17
259	10
260	10
261	12
262	185
263	52
264	10
273	22
274	13
275	16
285	23
288	17
289	15
301	11
315	12
316	36
331	37
332	10
338	14
355	267
356	76
357	14
359	30
369	18
370	101
371	52
372	16
373	397
374	116
375	16
386	66
387	24
388	924
389	275
390	41
