Mass spectrum: 2-METHYL-3-METHOXYPROPYL 2-PROPENOATE; EI-MS
Formula: C8H14O3
Exact mass: 158.09429
Instrument type: EI-MS
m/z	relative intensity
38	2
39	24
41	142
42	35
43	52
44	2
45	202
46	6
53	5
54	7
55	999
56	49
57	23
58	80
59	250
60	10
67	2
68	14
69	10
70	5
71	15
72	24
73	378
74	20
75	3
84	4
85	7
86	7
87	19
89	61
90	3
95	1
99	14
100	5
101	5
103	27
104	2
112	4
113	815
114	70
115	8
116	32
117	31
118	2
130	19
131	2
143	4
157	41
158	5
