Mass spectrum: 1,3-DIMETHYL-4,6-DIPHENYL-2-OXABICYCLO(4.1.0)HEPT-3-EN-5-ONE; EI-MS
Formula: C20H18O2
Exact mass: 290.13068
Instrument type: EI-MS
m/z	relative intensity
27	85
28	90
29	30
31	20
32	30
39	70
40	20
41	50
42	25
43	999
44	40
45	20
50	30
51	80
52	30
53	30
55	370
56	30
57	30
62	20
63	55
64	25
65	55
74	20
75	20
76	25
77	210
78	60
88	20
89	70
90	50
91	105
92	20
101	20
102	50
103	955
104	85
105	105
114	20
115	240
116	90
117	45
118	45
127	35
128	55
129	65
130	45
131	175
132	35
133	115
134	40
141	25
142	25
145	30
146	20
147	50
148	20
149	30
158	20
160	20
161	660
162	55
170	30
174	85
175	50
178	25
179	20
185	20
187	20
188	20
189	20
191	20
202	30
203	35
204	45
205	30
215	20
218	20
219	45
220	20
230	20
232	20
233	30
247	100
248	105
249	30
261	30
262	45
263	20
275	60
276	25
290	250
291	70
292	20
