Mass spectrum: 2-AMINO-1-METHOXYBUTANE; EI-MS
Formula: C5H13NO
Exact mass: 103.09971
Instrument type: EI-MS
m/z	relative intensity
15	49
18	34
27	32
28	58
29	24
30	149
31	27
39	17
41	205
42	86
43	55
44	67
45	69
56	34
57	14
58	999
59	77
73	20
74	142
75	12
