Mass spectrum: 3,3,5-TRIMETHYLCYCLOHEXYL ISOBUTYRATE; EI-MS
Formula: C13H24O2
Exact mass: 212.17763
Instrument type: EI-MS
m/z	relative intensity
27	187
28	24
29	117
39	121
40	23
41	580
42	67
43	809
44	24
53	56
54	11
55	297
56	75
57	162
65	10
67	134
68	313
69	999
70	62
71	286
77	15
79	19
80	14
81	146
82	281
83	347
84	22
85	10
89	55
91	11
93	13
95	180
96	38
109	842
110	77
123	14
124	588
125	294
126	23
