Mass spectrum: 1,2-BENZENEDICARBOXYLIC ANHYDRIDE; EI-MS
Name: PHTHALIC ACID ANHYDRIDE
Formula: C8H4O3
Exact mass: 148.01604
Instrument type: EI-MS
m/z	relative intensity
18	19
28	17
44	36
49	104
76	652
77	42
104	999
105	78
148	327
149	22
