Mass spectrum: NOOTKATONE; EI-MS
Formula: C15H22O
Exact mass: 218.16707
Instrument type: EI-MS
m/z	relative intensity
15	20
27	252
28	74
29	260
39	588
40	142
41	999
42	114
43	173
50	24
51	172
52	126
53	427
54	68
55	401
56	22
57	22
60	22
63	54
64	29
65	276
66	118
67	368
68	120
69	284
71	27
73	22
74	33
77	531
78	153
79	747
80	451
81	245
82	116
83	58
89	24
91	792
92	143
93	555
94	121
95	293
96	63
97	53
103	80
104	55
105	489
106	176
107	423
108	643
109	178
110	43
115	100
116	45
117	107
118	48
119	373
120	314
121	761
122	145
123	74
128	52
129	40
131	80
132	68
133	572
134	278
135	273
136	168
137	103
143	40
145	77
146	510
147	799
148	311
149	169
150	113
157	132
158	29
159	46
160	44
161	540
162	284
163	60
171	30
172	167
173	29
174	24
175	479
176	370
177	68
185	97
189	101
190	433
191	68
200	309
201	61
203	377
204	60
218	262
219	55
