Mass spectrum: 3-PHENYLPROPYL ACETATE; EI-MS
Formula: C11H14O2
Exact mass: 178.09938
Instrument type: EI-MS
m/z	relative intensity
39	49
41	39
43	409
51	4
63	19
65	74
77	59
78	4
79	29
91	339
92	49
96	2
103	49
104	24
105	79
115	4
116	44
117	729
118	999
119	94
