Mass spectrum: 1-HEXENE; EI-MS
Formula: C6H12
Exact mass: 84.0939
Instrument type: EI-MS
m/z	relative intensity
15	25
26	41
27	537
28	11
29	266
37	15
38	40
39	48
40	85
41	987
42	905
43	72
44	23
50	32
51	44
52	2
53	90
54	70
55	785
56	999
57	54
65	11
67	25
69	30
70	17
84	467
85	31
