Mass spectrum: 3,4-HEXANEDIONE; EI-MS
Formula: C6H10O2
Exact mass: 114.06808
Instrument type: EI-MS
m/z	relative intensity
15	10
26	54
27	259
28	34
29	732
30	14
39	12
42	26
55	13
57	999
58	31
114	93
