Mass spectrum: 1-METHOXY-2-BUTANOL; EI-MS
Formula: C5H12O2
Exact mass: 104.08373
Instrument type: EI-MS
m/z	relative intensity
15	10
29	27
31	396
33	18
41	151
43	64
45	292
46	27
47	242
55	28
57	29
58	404
59	999
60	33
71	15
72	9
73	79
74	10
75	184
104	12
