Mass spectrum: 2-ACETOXY-1-ACETYL-3,6-DI-TERT-BUTYLMERCAPTO-1,2,3,6-TETRAHYDRO-PYRIDINE; EI-MS
Formula: C17H29NO3S2
Exact mass: 359.15889
Instrument type: EI-MS
m/z	relative intensity
39	340
40	500
41	620
42	6
43	490
45	130
49	40
50	1
51	100
52	140
53	70
55	1
56	130
57	999
58	50
59	1
60	80
67	70
75	80
78	1
79	210
80	240
83	50
84	0
90	100
96	110
110	50
111	6
112	380
113	60
122	40
132	1
135	90
138	90
154	90
167	2
168	290
169	60
180	40
210	1
270	140
359	30
