Mass spectrum: 2-TERT-BUTYLMERCAPTOPYRIDINE; EI-MS
Formula: C9H13NS
Exact mass: 167.07687
Instrument type: EI-MS
m/z	relative intensity
29	170
39	200
41	210
50	8
56	210
67	410
78	110
83	0
111	999
112	160
113	50
152	0
167	70
168	10
