Mass spectrum: HEPTANOIC ACID TRIMETHYLSILYL ESTER; EI-MS
Formula: C10H22O2Si
Exact mass: 202.13891
Instrument type: EI-MS
m/z	relative intensity
42	81
43	863
45	548
47	20
49	77
51	71
55	217
56	12
57	84
58	136
59	77
60	10
61	77
68	71
69	87
72	11
73	737
74	84
75	999
76	10
77	405
78	77
115	68
117	18
131	74
187	175
