Mass spectrum: 1,2,3,4,7,7-HEXAFLUOROBICYCLO(2.2.1)HEPTA-2,5-DIENE; EI-MS
Formula: C7H2F6
Exact mass: 200.00607
Instrument type: EI-MS
m/z	relative intensity
69	500
74	250
81	430
93	50
124	300
131	180
150	999
174	3
181	600
200	650
