Mass spectrum: N-PROPYL BENZOATE; EI-MS
Formula: C10H12O2
Exact mass: 164.08373
Instrument type: EI-MS
m/z	relative intensity
27	80
41	60
51	190
77	430
105	999
106	80
122	220
123	340
164	10
