Mass spectrum: N,N-DIMETHYLETHANOLAMINE; EI-MS
Name: 2-DIMETHYLAMINOETHANOL
Formula: C4H11NO
Exact mass: 89.08406
Instrument type: EI-MS
m/z	relative intensity
15	76
18	10
27	36
28	52
29	49
30	111
31	58
40	12
41	30
42	223
43	68
44	150
45	35
56	23
57	37
58	999
59	52
88	23
89	73
90	12
