Mass spectrum: N-(2,2-DIDEUTERO-3-(4-METHOXYPHENYL)PROPIONYL)PIPERIDIN-2-ONE; EI-MS
Formula: C15H19NO3
Exact mass: 261.13649
Instrument type: EI-MS
m/z	relative intensity
55	20
56	10
57	10
77	10
78	10
82	10
91	10
92	10
93	20
98	15
99	25
100	40
101	170
102	20
105	10
106	10
107	15
108	10
109	10
120	15
121	250
122	40
132	25
134	10
135	100
136	999
137	120
162	20
163	60
164	20
263	210
264	55
265	10
