Mass spectrum: 2,5-DIMETHYLINDOLE; EI-MS
Formula: C10H11N
Exact mass: 145.08915
Instrument type: EI-MS
m/z	relative intensity
27	15
28	22
39	29
51	29
52	16
71.5	83
73	36
77	70
89	18
91	23
103	31
115	85
116	26
128	20
130	161
144	999
145	918
146	83
