Mass spectrum: 2,4-DIMETHYL-6-ETHYLPYRIDINE; EI-MS
Formula: C9H13N
Exact mass: 135.1048
Instrument type: EI-MS
m/z	relative intensity
26	38
27	136
28	77
29	5
31	21
38	35
39	172
40	3
41	69
42	36
50	42
51	8
52	49
53	66
54	30
60	3
62	32
63	43
64	32
65	6
66	28
67	30
77	127
78	4
79	59
80	35
91	40
92	3
93	28
104	29
105	28
106	8
107	278
108	40
117	39
118	3
119	32
120	28
121	28
132	3
133	32
134	999
135	486
136	57
