Mass spectrum: METHACRYLIC ACID ISOPROPYL ESTER; EI-MS
Name: ISOPROPYL METHACRYLATE
Formula: C7H12O2
Exact mass: 128.08373
Instrument type: EI-MS
m/z	relative intensity
15	30
26	11
27	112
28	23
29	15
31	19
38	19
39	220
40	56
41	775
42	150
43	695
44	25
45	54
55	13
59	241
68	18
69	999
70	132
74	13
82	18
83	60
86	55
87	527
88	24
110	7
113	53
128	19
