Mass spectrum: 2-METHYLPROPYL 2-AMINOBENZOATE; EI-MS
Name: ISOBUTYL ANTHRANILATE
Formula: C11H15NO2
Exact mass: 193.11028
Instrument type: EI-MS
m/z	relative intensity
27	42
29	38
38	14
39	110
41	108
42	12
43	28
52	26
53	11
57	33
63	28
64	36
65	230
66	29
90	14
91	43
92	300
93	48
119	999
120	409
121	29
137	481
138	34
193	357
194	39
