Mass spectrum: (BETA-HYDROXYETHYL)TRIMETHYLAMMONIUM BROMIDE; EI-MS
Formula: C5H14BrNO
Exact mass: 183.02588
Instrument type: EI-MS
m/z	relative intensity
15	454
18	139
30	339
42	508
44	639
58	999
72	85
80	139
89	215
94	769
104	22
124	14
