Mass spectrum: 3,6-DINITROCARBAZOLE; EI-MS
Formula: C12H7N3O4
Exact mass: 257.04366
Instrument type: EI-MS
m/z	relative intensity
28	166
29	80
30	28
39	4
41	158
42	53
43	266
44	26
45	33
51	19
53	17
54	2
55	158
56	47
57	155
60	4
61	42
63	22
68	28
69	13
70	30
71	67
73	47
74	2
75	17
77	30
79	14
81	5
82	22
83	61
84	55
85	4
86	17
87	25
95	33
96	2
97	50
98	44
99	19
109	2
110	17
111	33
112	22
113	2
114	17
115	14
123	19
125	2
126	28
127	19
129	25
137	4
138	91
139	28
152	28
153	6
154	22
164	614
165	591
166	2
180	19
181	349
182	25
197	1
211	316
212	22
226	25
227	34
228	25
239	19
257	999
258	112
