Mass spectrum: N-ACETYLMETHIONINE ETHYL ESTER; EI-MS
Formula: C9H17NO3S
Exact mass: 219.09291
Instrument type: EI-MS
m/z	relative intensity
15	24
27	47
29	77
43	90
44	177
56	401
61	501
74	14
75	101
83	55
88	86
99	95
103	233
104	438
112	241
128	8
130	75
139	22
145	999
146	25
158	189
172	69
173	33
174	3
176	65
219	213
220	74
