Mass spectrum: GLYCEROL TRIHEXANOATE; EI-MS
Name: TRI-N-CAPROIN
Formula: C21H38O6
Exact mass: 386.26684
Instrument type: EI-MS
m/z	relative intensity
43	75
69	10
70	24
71	135
98	48
99	999
100	67
116	16
158	49
159	36
171	60
172	31
173	48
185	10
214	42
215	15
227	15
257	64
258	10
270	10
271	77
272	13
386	0
