Mass spectrum: ISOPROPYL ORTHO TOLUATE (ALPHA,ALPHA,ALPHA-D3); EI-MS
Formula: C11H14O2
Exact mass: 178.09938
Instrument type: EI-MS
m/z	relative intensity
27	71
39	56
40	49
41	163
42	22
43	238
44	11
59	45
64	13
65	15
66	49
67	151
68	77
91	109
92	174
93	125
94	631
95	60
119	443
120	756
121	138
122	999
123	89
138	63
139	767
140	57
181	137
182	7
