Mass spectrum: 2,4-HEXADIENOIC ACID METHYL ESTER; EI-MS
Formula: C7H10O2
Exact mass: 126.06808
Instrument type: EI-MS
m/z	relative intensity
50	32
51	57
52	24
53	5
55	35
59	81
62	24
63	4
65	244
66	350
67	999
68	8
69	21
72	32
79	21
81	2
83	65
93	21
94	32
95	82
96	57
97	24
111	972
112	6
125	51
126	529
127	40
