Mass spectrum: ISOPROPYLAMINE; EI-MS
Formula: C3H9N
Exact mass: 59.0735
Instrument type: EI-MS
m/z	relative intensity
15	66
18	226
19	82
26	17
27	78
28	80
29	25
30	26
38	17
39	63
40	34
41	124
42	145
43	104
44	999
45	361
46	38
58	74
59	46
