Mass spectrum: 4,4'-BIPYRIDINE; EI-MS
Formula: C10H8N2
Exact mass: 156.06875
Instrument type: EI-MS
m/z	relative intensity
27	24
29	29
38	12
39	3
41	15
43	10
49	10
50	11
51	133
52	43
53	14
55	1
62	24
63	50
64	12
73	1
74	43
75	75
76	99
77	4
78	45
79	27
87	13
89	2
99	10
100	13
101	49
102	9
103	80
104	18
116	47
127	2
128	104
129	116
130	55
154	2
155	354
156	999
157	122
158	13
