Mass spectrum: RUBRATOXIN B TRIACETATE; EI-MS
Formula: C32H36O14
Exact mass: 644.21051
Instrument type: EI-MS
m/z	relative intensity
27	75
28	111
29	113
31	3
39	36
40	17
41	116
42	2
43	999
44	34
45	48
53	1
54	5
55	46
56	5
57	1
60	24
61	7
65	8
67	2
68	48
69	74
70	13
71	1
77	10
79	10
81	18
82	1
83	6
91	13
93	6
95	3
96	12
97	342
98	89
99	1
103	6
105	5
107	5
109	1
110	8
112	8
113	7
115	2
127	19
128	11
129	9
131	1
135	5
136	8
137	43
138	1
139	40
140	40
141	29
152	1
153	8
155	15
165	10
167	1
169	6
178	6
179	7
187	1
189	6
197	26
199	5
215	1
239	5
262	5
297	5
368	1
369	6
386	30
387	13
404	1
416	4
428	12
429	11
430	1
446	40
447	10
472	7
488	8
489	23
514	4
517	6
524	0
542	10
543	5
585	4
602	0
644	3
