Mass spectrum: TRIMETHOXYMETHYLSILANE; EI-MS
Formula: C4H12O3Si
Exact mass: 136.05557
Instrument type: EI-MS
m/z	relative intensity
15	34
29	19
31	16
43	16
45	91
47	15
59	151
60	32
61	92
74	36
75	192
76	19
77	18
90	19
91	489
92	27
93	19
104	10
105	268
106	21
107	15
121	999
122	42
123	40
