Mass spectrum: METHYL LACTATE; EI-MS
Formula: C4H8O3
Exact mass: 104.04734
Instrument type: EI-MS
m/z	relative intensity
15	117
19	42
26	20
27	93
29	144
30	24
31	25
33	172
42	22
43	138
44	23
45	999
46	23
55	10
59	29
61	33
