Mass spectrum: 4-(2-ACETYL-2-ETHOXYCARBONYL)ETHYL-3,5-DIMETHYLISOXAZOLE; EI-MS
Formula: C12H17NO4
Exact mass: 239.11576
Instrument type: EI-MS
m/z	relative intensity
239	70
196	360
166	170
124	210
110	720
68	580
43	999
42	230
