Mass spectrum: 3,4-DIMETHYLBENZOIC ACID METHYL ESTER; EI-MS
Formula: C10H12O2
Exact mass: 164.08373
Instrument type: EI-MS
m/z	relative intensity
44	32
45	13
51	68
52	1
53	18
59	18
62	18
63	2
64	18
65	32
66	27
68	1
75	9
77	110
78	32
79	12
82	9
89	22
91	13
92	2
98	13
102	18
103	68
104	2
105	353
106	32
107	9
120	1
123	9
125	9
133	999
134	9
135	22
139	9
149	9
157	1
163	18
164	298
165	32
181	9
