Mass spectrum: 1-METHYL-1-CYCLOHEXANECARBOXYLIC ACID METHYL ESTER; EI-MS
Formula: C9H16O2
Exact mass: 156.11503
Instrument type: EI-MS
m/z	relative intensity
38	28
41	268
42	30
43	10
44	26
45	342
46	19
51	2
53	52
54	24
55	973
56	6
57	26
59	414
60	17
67	8
68	37
69	100
70	93
71	1
73	61
74	244
75	24
77	3
79	19
81	131
82	45
83	2
87	41
88	220
95	37
96	20
97	999
98	82
101	458
102	3
109	15
114	15
115	19
124	4
125	24
127	21
141	69
156	15
157	19
