Mass spectrum: BENZYLAMINE; EI-MS
Formula: C7H9N
Exact mass: 107.0735
Instrument type: EI-MS
m/z	relative intensity
17	46
28	432
29	115
30	304
31	268
32	48
36	28
38	4
39	94
43	39
44	35
45	11
46	50
50	110
51	190
52	6
53	34
62	21
63	54
65	5
74	34
75	24
76	33
77	23
78	123
79	341
80	38
89	4
90	20
91	127
103	21
104	5
105	30
106	999
107	630
108	55
