Mass spectrum: 1-OCTADECYL-2,3-DI-TRIMETHYLSILYL GLYCEROL; EI-MS
Formula: C27H60O3Si2
Exact mass: 488.4081
Instrument type: EI-MS
m/z	relative intensity
67	11
71	61
73	123
74	13
75	5
83	48
84	14
85	64
89	1
98	12
99	30
101	36
103	10
104	10
105	2
109	12
113	22
115	29
116	65
117	25
118	29
119	3
125	15
130	167
131	148
132	37
133	27
134	32
135	18
145	21
149	5
177	28
207	90
221	15
308	11
342	14
398	17
473	31
474	11
