Mass spectrum: N-(3-(3-METHYL-1-INDOLYL)PROPYL)-3,5-DINITROBENZAMIDE; EI-MS
Name: 1-(3-(3,5-DINITROBENZAMIDO)PROPYL)-3-METHYLINDOLE
Formula: C19H18N4O5
Exact mass: 382.12772
Instrument type: EI-MS
m/z	relative intensity
75	110
77	69
78	147
130	21
131	113
143	66
144	725
145	37
158	105
171	95
195	78
212	8
352	12
365	12
382	999
