Mass spectrum: ETHYL PYRUVATE; EI-MS
Formula: C5H8O3
Exact mass: 116.04734
Instrument type: EI-MS
m/z	relative intensity
15	76
26	19
27	108
29	172
42	53
43	999
44	31
45	21
61	12
116	14
