Mass spectrum: (TRANS)ISOFLAVAN-4-OL ACETATE; EI-MS
Name: TRANS-3-PHENYLCHROMAN-4-YL ACETATE
Formula: C17H16O3
Exact mass: 268.10994
Instrument type: EI-MS
m/z	relative intensity
43	20
60	30
104	6
122	1
130	4
131	128
132	6
179	0
180	4
207	424
208	999
209	1
226	6
268	10
