Mass spectrum: CYCLOHEPTATRIENE; EI-MS
Formula: C7H8
Exact mass: 92.0626
Instrument type: EI-MS
m/z	relative intensity
26	12
27	43
37	20
38	45
39	192
40	29
41	19
43	12
45	25
455	12
46	15
50	40
51	69
52	22
53	19
61	20
62	40
63	89
64	20
65	200
66	36
77	20
79	13
89	38
90	16
91	999
92	494
93	38
