Mass spectrum: ETHYL CHLOROACETATE; EI-MS
Formula: C4H7ClO2
Exact mass: 122.01346
Instrument type: EI-MS
m/z	relative intensity
15	36
18	15
26	42
27	256
29	999
30	22
31	23
41	11
42	118
43	45
45	46
47	14
48	23
49	188
50	13
51	61
60	10
73	16
76	13
77	278
78	11
79	90
94	35
95	18
96	12
106	16
