Mass spectrum: PENTYL PHENYL KETONE; EI-MS
Name: HEXANO PHENONE
Formula: C12H16O
Exact mass: 176.12012
Instrument type: EI-MS
m/z	relative intensity
27	37
29	28
39	25
41	31
43	34
50	22
51	96
55	34
76	14
77	438
78	70
91	17
105	999
106	76
119	16
120	537
121	48
133	47
134	11
176	21
