Mass spectrum: 4-(3-INDOLYL)BUTYLIC ACID METHYL ESTER; EI-MS
Formula: C13H15NO2
Exact mass: 217.11028
Instrument type: EI-MS
m/z	relative intensity
40	46
44	91
51	50
57	28
63	18
65	46
77	73
79	50
102	28
103	60
115	28
117	23
130	999
131	128
143	228
144	64
156	37
157	18
186	96
206	23
217	297
218	46
