Mass spectrum: 4,4,5,5-TETRACYANO-1-TRIMETHYLSILYLMETHYLCYCLOHEXENE; EI-MS
Formula: C14H16N4Si
Exact mass: 268.11442
Instrument type: EI-MS
m/z	relative intensity
32	27
73	875
74	70
75	36
113	59
151	200
152	68
165	21
190	999
191	172
192	44
201	21
203	29
214	29
228	149
229	26
253	178
254	39
267	23
268	384
269	81
270	21
