Mass spectrum: ISOEUGENYL ACETATE; EI-MS
Name: 4-(1-PROPENYL)-2-METHOXYPHENYL ACETATE
Formula: C12H14O3
Exact mass: 206.09429
Instrument type: EI-MS
m/z	relative intensity
15	35
18	26
27	16
39	50
40	13
41	21
42	13
43	228
50	18
51	41
52	18
53	23
55	57
63	31
64	12
65	54
66	18
77	100
78	28
79	36
89	17
91	147
92	19
93	15
102	10
103	90
104	59
105	29
107	33
115	20
121	53
131	91
132	26
133	63
137	19
147	16
149	171
150	17
163	32
164	999
165	102
206	96
207	13
