Mass spectrum: (Z,Z,Z)-6,9,15-OCTADECATRIENOIC ACID METHYL ESTER; EI-MS
Formula: C19H32O2
Exact mass: 292.24023
Instrument type: EI-MS
m/z	relative intensity
40	64
41	292
43	175
44	37
45	26
52	15
54	170
55	289
57	34
59	75
66	83
67	999
68	294
69	305
71	45
73	11
74	97
77	53
78	35
79	567
80	531
81	943
82	640
83	199
84	57
85	54
86	18
87	169
88	20
91	112
92	69
93	679
94	550
95	629
96	302
97	76
98	14
99	27
101	18
105	133
106	99
107	314
108	211
109	217
110	244
111	77
112	15
115	20
117	14
119	126
120	84
121	516
122	303
123	143
124	126
125	21
127	18
129	19
130	12
131	17
133	67
134	38
135	311
136	237
137	86
140	20
145	30
147	59
148	16
149	250
150	204
151	18
153	5
154	18
161	60
163	280
164	50
168	26
173	15
175	21
177	95
178	82
192	16
210	74
223	12
235	19
249	78
250	21
263	108
292	31
