Mass spectrum: ISOBUTYLENE; EI-MS
Name: 2-METHYLE-1-PROPENE
Formula: C4H8
Exact mass: 56.0626
Instrument type: EI-MS
m/z	relative intensity
14	20
15	56
26	58
27	199
28	201
29	97
30	12
37	63
38	89
39	521
40	127
41	999
42	39
49	24
50	70
51	55
52	14
53	56
54	29
55	183
56	451
57	21
