Mass spectrum: PIPERIDINE; EI-MS
Formula: C5H11N
Exact mass: 85.08915
Instrument type: EI-MS
m/z	relative intensity
15	59
26	57
27	297
28	636
29	494
30	418
38	18
39	203
40	28
41	217
42	368
43	329
44	450
45	11
50	16
51	23
52	22
53	34
54	46
55	95
56	580
57	505
58	17
67	22
68	23
70	97
80	12
82	19
84	999
85	531
86	25
