Mass spectrum: 4-BENZOYLOXY-1-(2-BENZOYLOXYETHYL)CYCLOHEXAN-1-OL; EI-MS
Name: RENGYOL DIBENZOATE
Formula: C22H24O5
Exact mass: 368.16237
Instrument type: EI-MS
m/z	relative intensity
54	5
55	38
67	7
68	1
69	25
70	72
77	5
78	3
79	9
80	7
81	11
82	1
83	43
91	11
93	5
94	1
95	74
96	99
97	153
98	2
105	528
106	270
107	43
109	6
122	160
123	88
124	999
125	12
126	16
127	9
141	9
148	2
149	49
177	7
192	40
219	8
220	11
228	9
229	14
246	17
247	22
350	11
368	5
