Mass spectrum: 6-HYDROXY-2-PHENETHYL CHROMONE; EI-MS
Name: 6-HYDROXY-2-PHENETHYL-4H-CHROMEN-4-ONE
Formula: C17H14O3
Exact mass: 266.09429
Instrument type: EI-MS
m/z	relative intensity
91	999
92	77
105	11
136	14
137	21
147	26
265	14
266	698
267	137
268	17
