Mass spectrum: METHYL N-PROPYL ETHER; EI-MS
Formula: C4H10O
Exact mass: 74.07316
Instrument type: EI-MS
m/z	relative intensity
15	36
27	50
28	29
29	9
31	29
39	32
41	70
42	3
43	29
45	999
46	25
59	1
73	29
74	179
