Mass spectrum: BUTYL 2-METHYLBUTYRATE; EI-MS
Formula: C9H18O2
Exact mass: 158.13068
Instrument type: EI-MS
m/z	relative intensity
26	14
27	169
29	427
30	10
31	12
39	110
41	469
42	31
43	55
45	14
53	13
55	86
56	375
57	999
58	49
73	27
74	186
75	15
85	529
86	32
87	82
102	35
103	629
104	38
115	12
130	50
