Mass spectrum: 3-PHENYL-2-PROPEN-1-OL; EI-MS
Name: CINNAMYL ALCOHOL
Formula: C9H10O
Exact mass: 134.07316
Instrument type: EI-MS
m/z	relative intensity
26	20
27	126
29	100
30	12
31	84
37	11
38	37
39	199
40	12
41	16
43	29
50	151
51	346
52	84
53	39
55	229
56	43
57	43
61	17
62	52
63	169
64	28
65	106
66	30
67	12
74	55
75	52
76	53
77	496
78	630
79	287
80	15
86	10
87	20
89	98
90	26
91	799
92	999
93	73
101	12
102	92
103	238
104	44
105	553
106	55
107	26
115	422
116	151
117	75
119	11
131	41
132	17
133	184
134	675
135	56
