Mass spectrum: NITROBENZENE; EI-MS
Formula: C6H5NO2
Exact mass: 123.03203
Instrument type: EI-MS
m/z	relative intensity
50	161
51	438
52	25
63	2
65	140
74	79
75	46
76	4
77	999
78	67
93	148
123	76
124	54
