Mass spectrum: 1-HEPTANOL; EI-MS
Name: HEPTYL ALCOHOL
Formula: C7H16O
Exact mass: 116.12012
Instrument type: EI-MS
m/z	relative intensity
15	23
19	14
26	15
27	31
28	88
29	361
30	12
31	34
39	195
40	39
41	815
42	52
43	715
44	29
45	48
51	1
53	38
54	60
55	720
56	94
57	240
67	21
68	153
69	51
70	999
71	59
72	21
83	8
97	12
98	90
99	10
