Mass spectrum: CIS-3-MORPHOLINOMETHYLFLAVANONE; EI-MS
Name: 3-MORPHOLINOMETHYL-CIS-2-PHENYLCHROMAN-4-ONE
Formula: C20H21NO3
Exact mass: 323.15214
Instrument type: EI-MS
m/z	relative intensity
27	19
28	123
29	107
30	4
39	32
42	58
51	24
56	14
57	127
63	61
64	52
65	5
76	12
77	39
86	27
87	7
89	31
91	34
92	123
93	2
98	18
99	54
100	999
101	9
103	10
115	385
116	143
117	7
120	57
121	275
131	31
207	5
235	283
236	377
237	57
323	15
