Mass spectrum: 1,1-DICHLORO-2-(P-CHLOROPHENYL)ETHENE; EI-MS
Name: 4,BETA,BETA-TRICHLOROSTYRENE
Formula: C8H5Cl3
Exact mass: 205.94568
Instrument type: EI-MS
m/z	relative intensity
50	106
67	77
68	113
74	148
75	83
85	155
86	94
99	75
100	57
101	97
103	68
104	65
135	112
136	444
137	66
138	138
146	89
148	56
170	73
171	262
172	90
173	173
206	999
207	67
208	978
209	147
210	325
212	59
