Mass spectrum: METHYL TETRA-O-METHYL-ALPHA-D-TALOPYRANOSIDE; EI-MS
Formula: C11H22O6
Exact mass: 250.14164
Instrument type: EI-MS
m/z	relative intensity
27	20
29	44
31	23
33	1
39	12
41	53
42	13
43	6
44	18
45	261
47	16
55	2
57	23
58	13
59	54
69	1
71	140
72	21
73	129
74	3
75	730
76	27
83	17
85	3
87	11
88	999
89	100
98	1
99	12
101	646
102	64
111	2
117	11
127	28
131	28
143	1
145	15
149	286
150	18
159	1
176	46
187	38
219	21
