Mass spectrum: BETA-METHYL-GAMMA-OCTALACTONE; EI-MS
Formula: C9H16O2
Exact mass: 156.11503
Instrument type: EI-MS
m/z	relative intensity
15	15
27	156
28	36
29	181
39	113
40	27
41	330
42	474
43	325
44	73
45	28
51	15
53	19
55	126
56	140
57	134
58	25
67	14
68	15
69	349
70	208
71	322
72	22
81	15
82	4
83	20
84	13
85	73
86	28
87	272
88	18
95	12
96	56
97	13
98	10
99	999
100	78
101	14
113	16
114	51
128	26
138	13
155	9
156	27
157	4
