Mass spectrum: 2-PHENYLBUTANEDIOIC ACID BIS(TRIMETHYLSILYL) ESTER; EI-MS
Name: DI(TRIMETHYLSILYL) 2-PHENYLSUCCINATE
Formula: C16H26O4Si2
Exact mass: 338.13696
Instrument type: EI-MS
m/z	relative intensity
45	123
73	974
75	264
77	23
103	111
104	316
131	119
132	12
147	999
148	153
190	153
205	9
248	115
294	273
295	81
323	89
