Mass spectrum: 4-METHOXYPHENYL METHYL KETONE; EI-MS
Name: 4-METHOXYACETOPHENONE
Formula: C9H10O2
Exact mass: 150.06808
Instrument type: EI-MS
m/z	relative intensity
27	22
28	128
29	32
32	3
38	56
39	60
42	32
43	33
50	98
51	96
52	32
53	3
61	10
62	46
63	210
64	21
65	48
66	17
74	33
75	3
76	67
77	390
78	77
79	5
89	14
91	27
92	310
93	2
104	15
107	162
108	13
119	1
120	15
121	21
135	999
136	9
150	348
151	37
