Mass spectrum: BENZOPHENONE; EI-MS
Formula: C13H10O
Exact mass: 182.07316
Instrument type: EI-MS
m/z	relative intensity
27	20
39	20
50	104
51	316
52	17
63	11
74	29
75	21
76	42
77	694
78	38
105	999
106	59
152	24
153	14
154	16
181	44
182	411
183	45
