Mass spectrum: 2-(TRIMETHYLSILYL)OXY-HEXADECANOIC ACID TRIMETHYLSILYL ESTER; EI-MS
Formula: C22H48O3Si2
Exact mass: 416.3142
Instrument type: EI-MS
m/z	relative intensity
43	144
55	131
57	273
69	20
71	159
73	999
75	193
83	33
91	116
97	276
103	220
111	12
115	73
125	70
131	76
135	7
147	297
148	101
149	294
150	7
177	70
299	493
300	122
