Mass spectrum: 4-METHYLAMINO-ANTIPYRINE; EI-MS
Formula: C12H15N3O
Exact mass: 217.12151
Instrument type: EI-MS
m/z	relative intensity
218	200
217	770
216	220
215	230
123	410
119	130
98	230
97	120
91	150
83	620
77	200
67	40
57	260
56	999
51	90
42	360
