Mass spectrum: 2,3-DIMETHYLBUTANE; EI-MS
Formula: C6H14
Exact mass: 86.10955
Instrument type: EI-MS
m/z	relative intensity
27	19
28	14
29	19
32	1
39	5
41	92
42	999
43	84
44	31
55	31
56	5
57	1
69	5
70	14
71	269
72	2
85	11
86	97
87	7
