Mass spectrum: ALPHA-(4-DIMETHYLAMINOPHENYL)-OMEGA-(9-PHENANTHRYL)BUTANE; EI-MS
Name: 1-(4-DIMETHYLAMINOPHENYL)-4-(9-PHENANTHRYL)BUTANE
Formula: C26H27N
Exact mass: 353.21435
Instrument type: EI-MS
m/z	relative intensity
118	7
120	11
121	10
132	3
133	7
134	999
135	108
136	6
146	6
147	29
148	7
149	2
160	16
161	10
162	4
174	4
177	10
178	4
191	15
192	4
337	3
339	5
351	10
352	16
353	491
354	148
355	22
356	3
