Mass spectrum: 2-TERT-BUTYLCYCLOHEXYL ACETATE(EQUATORIAL-EQUATORIAL); EI-MS
Formula: C12H22O2
Exact mass: 198.16198
Instrument type: EI-MS
m/z	relative intensity
41	23
43	96
54	59
55	2
56	73
57	999
58	51
61	19
67	346
68	27
69	22
70	1
80	142
81	134
82	921
83	16
84	10
95	32
99	21
117	10
123	159
124	17
138	44
139	1
141	28
142	19
143	28
