Mass spectrum: STYRENE OXIDE; EI-MS
Formula: C8H8O
Exact mass: 120.05751
Instrument type: EI-MS
m/z	relative intensity
26	11
27	24
29	54
37	17
38	62
39	191
40	16
41	19
50	114
51	193
52	26
61	23
62	87
63	232
64	90
65	193
66	13
74	28
75	21
76	11
77	79
78	18
86	11
87	11
88	10
89	582
90	653
91	999
92	336
93	18
105	18
119	404
120	369
121	28
