Mass spectrum: URETHANE; EI-MS
Name: ETHYL CARBAMATE
Formula: C3H7NO2
Exact mass: 89.04768
Instrument type: EI-MS
m/z	relative intensity
14	21
15	83
16	76
17	76
18	232
19	25
26	76
27	348
28	130
29	304
30	49
31	305
32	15
42	27
43	128
44	999
45	615
46	73
61	62
62	797
63	11
71	10
74	143
89	56
90	72
