Mass spectrum: METHYL N-NONYL ETHER; EI-MS
Formula: C10H22O
Exact mass: 158.16707
Instrument type: EI-MS
m/z	relative intensity
41	525
43	286
45	842
55	40
57	496
69	627
70	999
101	327
