Mass spectrum: LINALOOL; EI-MS
Name: 3,7-DIMETHYL-1,6-OCTADIEN-3-OL
Formula: C10H18O
Exact mass: 154.13577
Instrument type: EI-MS
m/z	relative intensity
55	472
56	83
69	403
71	999
80	351
83	212
92	128
93	690
107	59
109	55
121	225
136	93
