Mass spectrum: ANTHRANILIC ACID BUTYL ESTER; EI-MS
Name: ORTHO AMINO BUTYLBENZOATE
Formula: C11H15NO2
Exact mass: 193.11028
Instrument type: EI-MS
m/z	relative intensity
27	59
39	124
41	111
50	16
51	22
52	58
63	38
64	52
65	265
66	34
79	26
90	11
91	47
92	353
93	59
119	999
120	297
121	28
137	239
138	22
193	188
194	20
