Mass spectrum: 7-METHYL-8-HYDROXYQUINOLINE; EI-MS
Name: 7-METHYL-8-QUINOLINOL
Formula: C10H9NO
Exact mass: 159.06841
Instrument type: EI-MS
m/z	relative intensity
27	27
28	335
29	11
32	23
38	13
39	51
50	41
51	95
645	60
65	74
76	43
77	170
102	76
103	136
104	28
114	21
129	55
130	612
131	101
140	23
141	12
158	621
159	999
160	110
161	10
