Mass spectrum: 2-HEPTANONE; EI-MS
Name: METHYL AMYL KETONE
Formula: C7H14O
Exact mass: 114.10447
Instrument type: EI-MS
m/z	relative intensity
15	71
26	14
27	154
28	3
29	150
39	102
40	16
41	17
42	41
43	999
44	27
45	4
53	15
55	55
56	16
57	6
58	782
59	133
69	12
71	14
72	45
85	44
99	35
114	10
115	13
