Mass spectrum: GAMMA-UNDECALACTONE; EI-MS
Formula: C11H20O2
Exact mass: 184.14633
Instrument type: EI-MS
m/z	relative intensity
15	4
18	3
26	4
27	84
28	66
29	259
30	5
31	4
32	4
39	46
40	9
41	156
42	51
43	134
44	10
45	4
51	2
53	14
54	21
55	149
56	122
57	129
58	16
59	8
60	14
65	2
67	21
68	28
69	76
70	39
71	27
72	23
73	17
74	2
77	1
79	5
80	3
81	21
82	29
83	39
84	65
85	999
86	45
87	11
88	11
89	1
93	3
94	3
95	22
96	22
97	18
98	22
99	98
100	54
101	22
102	3
107	1
109	10
110	17
111	13
112	6
113	9
114	29
115	4
116	1
119	5
122	16
123	13
124	19
125	15
126	3
127	25
128	90
129	10
137	7
138	5
141	7
142	4
143	2
147	2
148	7
155	3
156	1
166	8
167	1
183	2
184	1
185	1
