Mass spectrum: ESTRIOL; EI-MS
Formula: C18H24O3
Exact mass: 288.17254
Instrument type: EI-MS
m/z	relative intensity
43	223
44	115
55	182
77	119
79	104
81	119
91	145
105	11
107	156
115	130
131	138
133	27
144	123
145	223
146	324
147	17
157	156
158	145
160	332
161	130
172	186
201	13
202	134
213	231
214	104
288	999
289	231
