Mass spectrum: BUTYL ACETATE; EI-MS
Formula: C6H12O2
Exact mass: 116.08373
Instrument type: EI-MS
m/z	relative intensity
15	50
27	83
28	29
29	81
31	14
39	53
41	163
42	43
43	999
44	31
55	70
56	398
57	39
58	16
61	138
71	13
73	165
87	13
