Mass spectrum: 3,6-DIOXAOCTANE-1-OL; EI-MS
Name: DIETHYLENE GLYCOL MONOETHYL ETHER
Formula: C6H14O3
Exact mass: 134.09429
Instrument type: EI-MS
m/z	relative intensity
15	35
19	39
27	93
28	41
29	173
31	349
41	32
42	10
43	102
44	66
45	999
46	25
59	353
60	93
61	25
62	15
72	202
73	122
75	50
103	25
104	33
