Mass spectrum: HEXYL FORMATE; EI-MS
Name: FORMIC ACID HEXYL ESTER
Formula: C7H14O2
Exact mass: 130.09938
Instrument type: EI-MS
m/z	relative intensity
15	11
26	16
27	253
28	78
29	323
31	267
39	168
40	30
41	466
42	430
43	445
44	27
45	25
47	24
53	23
54	44
55	474
56	999
57	70
59	11
67	14
69	281
70	15
73	14
84	146
85	12
87	23
