Mass spectrum: DIPHENYLCHLOROPHOSPHINE; EI-MS
Formula: C12H10ClP
Exact mass: 220.02086
Instrument type: EI-MS
m/z	relative intensity
51	140
64	125
77	121
78	4
81	42
91	69
92	38
107	3
108	395
115	46
127	45
133	4
139	28
143	160
144	21
145	9
152	140
153	82
154	999
155	13
170	39
181	28
182	21
183	9
184	270
185	320
186	84
204	5
211	55
219	168
220	950
221	2
222	310
223	47
