Mass spectrum: 6-ETHYL-2-METHYLPYRIDINE; EI-MS
Formula: C8H11N
Exact mass: 121.08915
Instrument type: EI-MS
m/z	relative intensity
27	153
28	34
29	41
38	21
39	250
40	22
41	57
51	76
52	53
53	11
63	16
64	14
65	108
66	80
77	74
78	13
79	42
92	71
93	292
104	10
106	24
120	999
121	515
122	44
