Mass spectrum: TRIFLUOROACETIC ACID; EI-MS
Formula: C2HF3O2
Exact mass: 113.99286
Instrument type: EI-MS
m/z	relative intensity
17	30
18	34
29	69
31	132
44	51
45	999
46	12
47	24
50	218
51	433
67	11
69	739
70	26
78	22
86	17
95	64
97	40
114	11
