Mass spectrum: DECAFLUOROBENZOPHENONE; EI-MS
Formula: C13F10O
Exact mass: 361.97895
Instrument type: EI-MS
m/z	relative intensity
31	73
55	9
69	11
74	2
79	62
86	21
93	158
98	7
110	14
117	578
118	30
129	2
141	13
165	12
167	625
168	4
176	11
181	15
195	999
196	1
197	10
227	10
265	13
362	3
363	44
