Mass spectrum: DIETHYLHYDRAZONE ACETONE; EI-MS
Name: ACETONE DIETHYLHYDRAZONE
Formula: C7H16N2
Exact mass: 128.13135
Instrument type: EI-MS
m/z	relative intensity
27	147
28	147
29	169
30	4
39	50
40	25
41	112
42	19
43	105
44	99
54	11
55	1
56	769
57	42
58	122
70	3
71	27
72	36
85	61
97	1
99	93
100	9
112	10
113	999
114	100
127	32
128	337
129	34
