Mass spectrum: PARA-BUTYLBENZOIC ACID TRIMETHYLSILYL ESTER; EI-MS
Name: TRIMETHYLSILYL 4-BUTYLBENZOATE
Formula: C14H22O2Si
Exact mass: 250.13891
Instrument type: EI-MS
m/z	relative intensity
45	348
47	116
51	60
55	7
65	89
73	274
75	123
77	22
78	54
89	96
90	271
91	45
92	60
103	73
105	60
118	16
133	70
148	61
161	776
162	10
191	616
192	144
193	130
235	999
236	197
237	61
250	70
