Mass spectrum: 2-(1-PROPYL-3-BUTENYL)CYCLOHEXANONE; EI-MS
Formula: C13H22O
Exact mass: 194.16707
Instrument type: EI-MS
m/z	relative intensity
42	160
43	18
53	33
54	38
55	176
57	24
65	23
67	97
69	75
70	135
77	31
79	60
80	18
81	72
83	128
91	92
93	32
95	31
96	41
97	112
98	999
99	71
105	27
111	24
129	17
131	29
133	61
134	21
145	30
147	31
151	80
153	18
176	37
194	25
