Mass spectrum: 6-METHYL-4'-N,N-DIMETHYLAMINOFLAVANONE; EI-MS
Name: 2-(4-DIMETHYLAMINOPHENYL)-6-METHYLCHROMAN-4-ONE
Formula: C18H19NO2
Exact mass: 281.14158
Instrument type: EI-MS
m/z	relative intensity
28	101
32	20
39	25
42	3
51	42
52	24
77	89
78	6
103	40
104	21
105	30
121	3
130	43
131	77
132	21
134	29
135	35
146	419
147	999
148	14
149	25
174	21
280	80
281	58
282	115
