Mass spectrum: 1,3-DIMETHOXYBUTANE; EI-MS
Formula: C6H14O2
Exact mass: 118.09938
Instrument type: EI-MS
m/z	relative intensity
39	79
41	184
42	55
43	17
45	1000
46	30
51	9
53	3
54	20
55	114
56	54
57	3
58	75
59	999
60	48
61	1
64	11
69	6
71	355
72	2
73	38
75	22
85	28
86	41
87	39
88	30
103	46
