Mass spectrum: 1-METHYLLYSERGIC ACID DIETHYLAMIDE; EI-MS
Formula: C21H27N3O
Exact mass: 337.21541
Instrument type: EI-MS
m/z	relative intensity
55	70
56	150
57	390
58	6
69	40
70	50
71	40
72	1
81	30
83	30
85	40
100	1
101	30
112	30
113	10
117	0
118	110
125	40
127	30
128	1
150	50
152	30
153	40
154	0
155	10
164	10
165	30
166	0
167	50
168	110
169	30
180	0
181	140
182	40
183	10
191	0
192	80
193	70
194	170
195	5
196	100
197	10
205	70
206	1
207	50
208	40
209	40
210	2
211	30
219	90
220	70
221	3
222	130
223	30
234	50
235	5
236	320
237	380
238	70
294	0
336	10
337	999
338	220
339	30
