Mass spectrum: 1,1,1,5,5,5-HEXAFLUOROACETYLACETONE; EI-MS
Name: 1,1,1,5,5,5-HEXAFLUORO-2,4-PENTADIONE
Formula: C5H2F6O2
Exact mass: 207.9959
Instrument type: EI-MS
m/z	relative intensity
19	10
29	18
31	25
33	12
41	37
42	42
50	17
51	11
53	11
63	18
69	999
70	29
75	18
83	17
89	35
91	47
97	19
119	59
120	17
137	17
139	508
140	23
208	24
