Mass spectrum: ISOOCTYL PALMITATE; EI-MS
Formula: C24H48O2
Exact mass: 368.36543
Instrument type: EI-MS
m/z	relative intensity
53	26
54	662
55	414
56	999
57	66
58	14
59	72
60	8
67	48
68	58
69	479
70	71
71	795
72	35
73	84
81	4
82	51
83	323
84	458
85	12
95	36
97	153
98	156
99	4
101	39
111	39
112	684
113	17
129	34
157	26
239	80
256	9
257	199
258	35
311	17
368	5
369	32
