Mass spectrum: BUTYL BUTYRYLLACTATE; EI-MS
Formula: C11H20O4
Exact mass: 216.13616
Instrument type: EI-MS
m/z	relative intensity
27	45
29	54
41	782
43	23
56	36
57	63
71	999
72	5
115	135
116	13
143	39
160	1
172	38
