Mass spectrum: PARA-TERT-BUTYLCYCLOHEXANOL; EI-MS
Formula: C10H20O
Exact mass: 156.15142
Instrument type: EI-MS
m/z	relative intensity
27	86
28	14
29	188
31	20
39	96
40	16
41	409
42	25
43	107
44	47
51	10
53	44
54	86
55	187
56	407
57	999
58	39
67	286
68	23
69	69
70	19
77	12
79	33
80	144
81	436
82	229
83	205
84	13
95	43
96	16
99	133
101	11
110	27
123	142
124	13
138	114
139	11
