Mass spectrum: PARA AMINO ISOBUTYLBENZOATE; EI-MS
Formula: C11H15NO2
Exact mass: 193.11028
Instrument type: EI-MS
m/z	relative intensity
15	15
27	62
29	47
38	17
39	132
40	17
41	99
43	69
45	378
51	27
63	55
64	30
65	280
66	20
77	27
79	12
89	45
90	198
91	267
92	233
93	23
118	252
119	77
120	999
121	103
136	182
137	702
138	70
193	104
194	12
