Mass spectrum: ISOBUTYRALDEHYDE; EI-MS
Formula: C4H8O
Exact mass: 72.05751
Instrument type: EI-MS
m/z	relative intensity
14	12
15	46
26	65
27	577
28	126
29	223
31	15
37	30
38	51
39	242
40	31
41	715
42	91
43	999
44	41
55	16
57	32
72	371
73	26
