Mass spectrum: DIAZEPAM; EI-MS
Formula: C16H13ClN2O
Exact mass: 284.07164
Instrument type: EI-MS
m/z	relative intensity
31	16
39	42
41	13
42	34
50	34
51	89
52	20
62	2
63	75
64	15
65	43
73	2
74	27
75	75
76	65
77	15
81	19
81.5	31
82	35
82.5	3
83.5	27
86	13
87	24
88	3
88.5	16
89	104
90	38
91	8
95.5	48
96	21
96.5	47
97	2
98	14
99	27
101	19
102	4
102.5	19
103	34
104	16
109	3
109.5	34
110	117
110.5	53
111	6
112	18
113	29
114	34
115	2
116	48
117	82
118	25
120	2
123	16
124	36
125	77
126	4
127	67
128	41
129	14
136	2
137	22
138	29
139	25
140	2
142	15
149	15
150	53
151	8
152	92
153	22
163	70
164	6
165	143
166	35
167	13
176	2
177	91
178	56
179	39
180	3
190	30
191	30
192	47
193	8
194	25
199	22
203	15
204	2
205	66
206	28
213	33
214	2
215	17
219	46
220	25
221	28
222	76
223	30
227	23
228	8
229	21
230	31
233	14
238	3
239	66
240	33
241	91
242	3
243	33
244	14
248	52
249	7
250	15
253	14
255	360
256	999
257	421
258	380
259	110
260	2
268	36
269	15
270	17
271	19
282	23
283	887
284	800
285	43
286	277
287	52
