Mass spectrum: BUTYL ACETATE; EI-MS
Formula: C6H12O2
Exact mass: 116.08373
Instrument type: EI-MS
m/z	relative intensity
15	64
26	13
27	85
28	40
29	86
31	22
39	46
40	12
41	162
42	29
43	999
44	31
55	82
56	459
57	46
58	21
61	158
71	20
73	150
86	13
87	18
116	5
