Mass spectrum: 5-ISOPENTYL-2-METHYLPYRIDINE; EI-MS
Formula: C11H17N
Exact mass: 163.1361
Instrument type: EI-MS
m/z	relative intensity
39	191
40	10
41	205
42	5
43	190
44	141
50	48
51	10
52	70
53	67
55	35
56	1
57	164
63	37
65	81
66	4
77	342
78	145
79	150
91	6
92	46
93	54
94	63
105	2
106	999
107	705
108	84
119	4
120	200
121	21
148	35
163	40
164	57
