Mass spectrum: ALLYL ISOTHIOCYANATE; EI-MS
Formula: C4H5NS
Exact mass: 99.01427
Instrument type: EI-MS
m/z	relative intensity
32	40
37	66
38	121
39	764
40	80
41	880
42	28
44	79
45	123
46	19
51	12
52	12
54	11
58	59
59	57
60	21
67	12
69	15
70	80
71	97
72	319
73	16
74	11
98	58
99	999
100	58
101	45
