Mass spectrum: 3,5-DIMETHYL-4-(2'-CYCLOHEXANOYL)METHYL-ISOXAZOLE; EI-MS
Formula: C12H17NO2
Exact mass: 207.12593
Instrument type: EI-MS
m/z	relative intensity
207	230
164	40
110	999
95	170
68	460
43	350
42	100
41	20
