Mass spectrum: PROPANAL BENZYL ISOPROPYL ACETAL; EI-MS
Formula: C13H20O2
Exact mass: 208.14633
Instrument type: EI-MS
m/z	relative intensity
27	48
29	31
31	19
39	5
41	55
43	81
51	20
57	1
59	229
63	13
65	85
77	4
79	23
89	16
90	21
91	999
92	85
101	34
107	19
108	1
148	21
179	56
