Mass spectrum: 3-HEXANOL; EI-MS
Formula: C6H14O
Exact mass: 102.10447
Instrument type: EI-MS
m/z	relative intensity
27	40
29	77
31	304
39	15
41	175
42	24
43	324
44	37
45	54
55	946
56	62
57	85
58	116
59	999
60	44
69	20
72	81
73	640
74	30
84	14
85	118
101	5
102	1
