Mass spectrum: 1,2,4-TRIMETHOXYBUTANE; EI-MS
Formula: C7H16O3
Exact mass: 148.10994
Instrument type: EI-MS
m/z	relative intensity
39	21
41	59
42	14
43	5
45	999
46	25
53	11
54	0
55	23
56	5
57	9
58	3
59	50
60	3
69	7
70	0
71	143
73	94
74	7
75	2
84	10
85	19
86	4
87	0
88	2
89	20
101	8
102	0
103	229
104	13
115	1
116	1
117	3
