Mass spectrum: 2-ETHYLHEXYL ACETATE; EI-MS
Name: ACETIC ACID 2-ETHYLHEXYL ESTER
Formula: C10H20O2
Exact mass: 172.14633
Instrument type: EI-MS
m/z	relative intensity
15	31
27	83
28	31
29	138
31	13
39	53
41	289
42	100
43	999
44	38
53	18
54	18
55	362
56	215
57	492
58	29
61	58
67	20
68	19
69	123
70	723
71	115
72	26
73	93
74	133
75	18
82	46
83	201
84	123
86	53
97	21
98	16
111	15
112	38
113	21
