Mass spectrum: N-ACETYL-2-ACETOXYETHYLAMINOBENZENE; EI-MS
Formula: C12H15NO3
Exact mass: 221.10519
Instrument type: EI-MS
m/z	relative intensity
43	999
44	20
51	125
65	5
77	360
78	60
79	65
87	5
91	105
92	30
93	135
104	13
105	75
106	990
107	95
118	17
119	770
120	125
135	90
136	2
148	60
161	550
162	90
179	14
221	105
222	25
