Mass spectrum: N-(3-TRIMETHYLSILYLOXYPROPYL)MORPHOLINE; EI-MS
Formula: C10H23NO2Si
Exact mass: 217.14981
Instrument type: EI-MS
m/z	relative intensity
41	62
42	108
43	158
44	31
45	61
47	11
55	28
56	123
57	34
58	24
59	59
69	28
70	33
71	38
72	16
73	158
74	8
75	75
84	18
86	57
87	6
89	8
98	13
100	999
101	105
102	7
103	18
115	16
116	4
129	4
144	8
145	39
158	4
171	6
186	12
202	24
217	11
