Mass spectrum: HEXANAL 2E-HEXENYL 3Z-HEXENYL ACETAL; EI-MS
Formula: C18H34O2
Exact mass: 282.25588
Instrument type: EI-MS
m/z	relative intensity
27	52
29	65
31	12
39	54
41	263
42	25
43	53
44	11
53	20
54	28
55	503
56	33
57	50
67	88
68	11
69	20
71	12
81	17
82	80
83	999
84	73
99	15
101	17
113	23
139	11
183	21
