Mass spectrum: 1,1-DIMETHOXY-3-BUTANONE; EI-MS
Formula: C6H12O3
Exact mass: 132.07864
Instrument type: EI-MS
m/z	relative intensity
14	18
15	135
26	13
27	60
28	10
29	106
31	110
33	12
39	15
41	10
42	59
43	999
44	22
45	14
47	115
58	75
59	58
75	460
76	11
85	108
101	93
117	77
