Mass spectrum: DIETHYL 2-FORMYLSUCCINATE; EI-MS
Formula: C9H14O5
Exact mass: 202.08412
Instrument type: EI-MS
m/z	relative intensity
54	55
55	847
56	147
57	145
60	60
71	28
72	81
73	492
74	32
82	44
83	745
84	174
85	56
88	183
98	147
99	630
100	657
101	46
110	211
111	138
128	999
129	638
130	55
156	185
157	356
158	29
174	100
202	57
