Mass spectrum: NAPHTHALENE; EI-MS
Formula: C10H8
Exact mass: 128.0626
Instrument type: EI-MS
m/z	relative intensity
57	3
71	2
76	7
77	20
78	21
101	12
102	61
103	4
125	1
126	34
127	117
128	999
129	124
130	5
