Mass spectrum: ISOBUTYL ISOBUTYRATE; EI-MS
Formula: C8H16O2
Exact mass: 144.11503
Instrument type: EI-MS
m/z	relative intensity
29	56
41	106
42	20
43	587
44	20
55	16
56	557
57	344
58	16
70	29
71	999
72	45
73	29
88	29
89	310
90	16
101	83
