Mass spectrum: DICYCLOHEXYLUREA; EI-MS
Formula: C13H24N2O
Exact mass: 224.18886
Instrument type: EI-MS
m/z	relative intensity
53	18
54	40
55	168
56	999
57	62
61	351
67	65
68	10
69	26
70	191
71	17
79	15
81	39
82	46
83	56
84	12
96	9
97	29
98	175
99	383
100	83
142	23
143	183
144	17
224	142
225	23
