Mass spectrum: P-CRESYL OCTANOATE; EI-MS
Formula: C15H22O2
Exact mass: 234.16198
Instrument type: EI-MS
m/z	relative intensity
27	38
29	42
39	24
41	89
42	16
43	95
51	12
53	15
55	69
57	215
65	14
77	53
78	13
79	21
91	21
107	83
108	999
109	101
127	39
234	35
