Mass spectrum: 2-METHYLHYDROQUINONE; EI-MS
Formula: C7H8O2
Exact mass: 124.05243
Instrument type: EI-MS
m/z	relative intensity
39	218
54	221
82	179
94	18
95	181
122	261
123	235
124	999
