Mass spectrum: N-ACETYLGLUTAMIC ACID DIETHYL ESTER; EI-MS
Formula: C11H19NO5
Exact mass: 245.12632
Instrument type: EI-MS
m/z	relative intensity
31	30
43	27
45	22
56	2
84	699
85	32
98	10
102	3
111	13
112	267
113	14
126	41
127	29
128	11
130	525
131	3
145	16
153	32
154	21
157	1
158	230
159	13
172	999
173	8
199	115
200	106
202	58
245	24
