Mass spectrum: 2,4-DIETHYL-5-METHLOXAZOLE; EI-MS
Formula: C8H13NO
Exact mass: 139.09971
Instrument type: EI-MS
m/z	relative intensity
41	129
42	20
43	491
54	21
55	52
56	670
57	59
68	12
69	821
70	50
82	50
83	21
84	209
96	160
110	21
124	999
125	180
138	312
139	800
140	150
