Mass spectrum: ISOPROPANOL; EI-MS
Name: 2-METHYLETHANOL
Formula: C3H8O
Exact mass: 60.05751
Instrument type: EI-MS
m/z	relative intensity
14	13
15	57
19	81
27	131
29	80
31	53
38	16
39	55
41	83
42	36
43	182
44	27
45	999
46	25
59	33
