Mass spectrum: PARA CHLORO ISOBUTYLBENZOATE; EI-MS
Formula: C11H13ClO2
Exact mass: 212.06041
Instrument type: EI-MS
m/z	relative intensity
27	51
29	82
39	52
41	146
43	32
50	78
51	36
55	24
56	679
57	50
73	21
74	31
75	218
76	58
77	22
111	324
112	22
113	115
139	999
140	76
141	328
142	22
156	75
157	254
158	40
159	82
