Mass spectrum: METHYL 12-CARBOXYMETHYL-9-OCTADECENOATE; EI-MS
Formula: C21H38O4
Exact mass: 354.27701
Instrument type: EI-MS
m/z	relative intensity
43	999
44	65
45	32
53	175
54	605
55	58
56	88
58	13
66	36
67	438
68	224
69	28
70	44
71	35
74	352
75	4
77	31
79	126
80	105
81	41
82	278
83	162
84	88
85	4
87	132
93	73
94	88
95	24
96	274
97	171
98	114
101	2
107	44
108	59
109	138
110	15
111	61
113	23
115	31
121	4
122	56
123	92
124	132
125	4
135	42
136	43
137	53
138	7
149	34
150	112
151	41
152	4
164	57
165	37
166	68
178	3
208	28
220	28
262	96
263	9
264	31
294	525
295	112
296	22
