Mass spectrum: 2-(2-BUTOXYETHOXY)ETHANOL; EI-MS
Name: BUTYL CARBITOL
Formula: C8H18O3
Exact mass: 162.12559
Instrument type: EI-MS
m/z	relative intensity
27	122
28	100
29	311
30	15
31	99
33	16
39	39
41	287
42	20
43	65
44	77
45	999
46	25
55	56
56	178
57	992
58	43
59	92
60	70
61	29
62	41
63	17
69	12
71	46
72	86
73	39
75	196
76	12
77	23
85	46
87	115
88	19
89	97
90	15
100	84
101	51
131	30
132	42
144	12
