Mass spectrum: PHENYLDIMETHYLMETHOXYSILANE; EI-MS
Formula: C9H14OSi
Exact mass: 166.08139
Instrument type: EI-MS
m/z	relative intensity
42	15
43	235
45	26
51	18
53	26
58	128
66	16
77	23
79	16
95	27
98	95
100	15
101	16
108	54
109	18
119	19
121	377
122	49
123	17
135	33
151	999
152	142
153	46
166	125
167	19
