Mass spectrum: 2-CHLOROETHYL VINYL ETHER; EI-MS
Formula: C4H7ClO
Exact mass: 106.01854
Instrument type: EI-MS
m/z	relative intensity
36	45
37	21
38	26
39	4
41	72
42	246
43	987
44	72
45	121
48	22
49	128
50	3
51	41
57	218
61	33
62	24
63	999
64	93
65	334
79	3
106	252
108	84
