Mass spectrum: 7-HYDROXYQUINOLINE; EI-MS
Formula: C9H7NO
Exact mass: 145.05276
Instrument type: EI-MS
m/z	relative intensity
29	534
30	106
34	60
38	5
39	106
41	66
42	53
43	11
45	66
50	66
51	73
55	5
62	73
63	179
64	66
72	5
75	46
76	33
77	40
89	23
90	212
91	53
99	33
100	9
101	113
116	133
117	371
118	9
144	46
145	999
146	93
