Mass spectrum: 7-METHYLPYRAZOLO(2,3-A)PYRIDINE; EI-MS
Formula: C8H8N2
Exact mass: 132.06875
Instrument type: EI-MS
m/z	relative intensity
26	18
27	54
37	20
38	6
39	149
40	26
41	33
42	3
50	76
51	136
52	102
53	6
54	13
61	13
62	53
63	14
64	73
65	121
66	77
67	1
68	4
74	19
75	23
76	5
77	138
78	218
79	88
80	2
81	12
90	25
91	67
92	10
93	13
102	17
103	23
104	31
105	175
106	20
117	18
118	3
119	4
130	8
131	312
132	999
133	94
134	5
