Mass spectrum: DIBUTYL ETHER; EI-MS
Name: 1-BUTOXYBUTANE
Formula: C8H18O
Exact mass: 130.13577
Instrument type: EI-MS
m/z	relative intensity
18	13
27	93
28	44
29	267
31	25
39	59
41	379
42	22
43	31
45	22
55	45
56	150
57	999
58	44
73	13
87	123
101	44
