Mass spectrum: CIS-FLAVAN-4-OL; EI-MS
Name: 4-HYDROXY-CIS-2-PHENYLCHROMAN
Formula: C15H14O2
Exact mass: 226.09938
Instrument type: EI-MS
m/z	relative intensity
43	10
104	999
105	140
121	11
122	280
123	27
131	100
132	1
207	270
208	600
209	100
210	1
226	313
227	50
