Mass spectrum: NERYL FORMATE; EI-MS
Name: (Z)-3,7-DIMETHYL-2,6-OCTADIENYL FORMATE
Formula: C11H18O2
Exact mass: 182.13068
Instrument type: EI-MS
m/z	relative intensity
27	85
29	80
31	15
39	133
40	26
41	599
42	31
43	38
51	17
52	12
53	104
54	11
55	47
57	15
65	18
66	11
67	102
68	213
69	999
70	64
77	27
79	33
80	69
81	51
83	12
84	16
91	21
92	34
93	154
94	23
95	11
107	16
121	52
136	97
137	14
