Mass spectrum: HEPTADECANOIC ACID TRIMETHYLSILYL ESTER; EI-MS
Formula: C20H42O2Si
Exact mass: 342.29541
Instrument type: EI-MS
m/z	relative intensity
41	500
43	389
55	237
56	19
69	169
70	177
73	322
75	999
76	194
79	186
81	101
85	19
95	211
105	203
109	177
111	19
117	584
129	415
132	279
145	14
207	118
327	228
