Mass spectrum: 1-METHOXYCARBONYLPHENAZINE; EI-MS
Formula: C14H10N2O2
Exact mass: 238.07423
Instrument type: EI-MS
m/z	relative intensity
50	55
51	30
52	10
57	10
62	15
63	15
74	15
75	45
76	20
77	10
89	20
89.5	125
90	20
101	15
102	90
103.5	80
104	15
119	15
127	20
128	20
129	30
140	10
151	15
152	130
153	35
167	10
178	10
179	515
180	999
181	110
182	10
194	10
208	80
223	10
237	10
238	450
239	60
