Mass spectrum: 2-(2-METHYLBENZOYL)INDOLE; EI-MS
Name: 2-INDOLYL O-TOLYL KETONE
Formula: C16H13NO
Exact mass: 235.09971
Instrument type: EI-MS
m/z	relative intensity
39	30
41	28
43	45
55	2
57	16
63	30
65	56
69	7
77	14
81	19
89	298
90	13
91	269
115	30
116	34
117	2
118	98
119	45
130	94
143	2
144	98
178	11
204	53
205	2
206	139
207	69
216	72
217	10
218	378
219	44
220	49
235	999
236	153
