Mass spectrum: ALPHA-MUUROLENE; EI-MS
Formula: C15H24
Exact mass: 204.1878
Instrument type: EI-MS
m/z	relative intensity
27	43
29	38
39	65
40	1
41	200
42	10
43	100
51	2
52	8
53	61
54	6
55	1
56	10
57	21
63	8
64	1
65	42
66	11
67	58
68	1
69	85
70	10
75	5
77	12
78	28
79	140
80	32
81	21
82	17
83	8
89	8
91	20
92	82
93	351
94	351
95	10
96	6
102	5
103	20
104	2
105	999
106	155
107	96
108	4
109	22
110	15
115	35
116	2
117	45
118	18
119	210
120	5
121	116
122	30
123	92
124	1
127	11
128	25
129	27
130	2
131	35
132	13
133	127
134	7
135	40
136	41
141	6
142	1
143	6
144	6
145	41
146	1
147	106
148	72
149	47
150	1
157	5
159	20
160	42
161	66
162	106
163	10
175	23
176	1
189	120
190	18
204	390
205	7
206	8
