Mass spectrum: PENTYL BENZOATE; EI-MS
Formula: C12H16O2
Exact mass: 192.11503
Instrument type: EI-MS
m/z	relative intensity
27	85
28	17
29	80
39	56
40	10
41	109
42	155
43	67
50	46
51	173
52	14
55	128
69	35
70	263
71	19
74	10
75	12
76	30
77	495
78	42
79	76
105	999
106	86
107	11
122	182
123	811
124	66
135	13
192	32
