Mass spectrum: 2-HYDROXY-5-METHOXYACETOPHENONE (5,5,5-D3); EI-MS
Name: 2-HYDROXY-5-DEUTEROMETHOXYACETOPHENONE
Formula: C9H10O3
Exact mass: 166.06299
Instrument type: EI-MS
m/z	relative intensity
40	100
41	50
42	28
43	64
44	22
50	200
51	260
52	35
53	320
54	110
55	130
56	3
57	20
61	55
62	81
63	25
64	60
65	95
66	228
67	13
68	35
69	55
70	75
71	2
72	30
73	18
74	38
75	3
76	20
77	410
78	85
79	30
80	195
81	30
82	20
90	2
91	25
92	45
93	35
94	10
95	55
96	30
97	25
98	43
99	27
105	275
106	38
107	7
108	410
109	110
110	10
111	1
112	45
119	10
120	10
122	2
123	25
124	15
125	25
126	16
127	30
133	130
134	20
135	2
136	20
137	20
140	25
149	2
150	17
151	222
152	40
153	4
154	999
155	105
156	25
168	2
169	695
170	85
