Mass spectrum: 7-METHOXYISOFLAVONE; EI-MS
Name: 7-METHOXY-3-PHENYL-4H-CHROMEN-4-ONE
Formula: C16H12O3
Exact mass: 252.07864
Instrument type: EI-MS
m/z	relative intensity
27	23
28	519
29	20
32	16
39	60
41	21
51	104
52	3
53	22
63	121
65	24
69	4
74	30
75	37
76	72
77	3
79	146
82	28
91	22
92	7
94	40
102	109
107	192
120	6
122	314
123	23
126	84
149	5
150	462
151	72
152	95
153	2
208	33
209	38
251	999
252	93
253	150
