Mass spectrum: CROTYLHYDRAZONE BUTYRALDEHYDE; EI-MS
Name: BUTYRALDEHYDE 2-BUTENYLHYDRAZONE
Formula: C8H16N2
Exact mass: 140.13135
Instrument type: EI-MS
m/z	relative intensity
27	590
28	433
29	668
30	38
31	34
39	322
40	53
41	86
42	200
43	656
44	411
45	2
51	19
53	100
54	68
55	999
56	434
57	415
58	356
67	2
68	266
69	211
70	266
71	16
72	61
80	14
81	17
82	4
83	54
84	41
85	245
86	33
87	18
95	18
96	19
97	28
98	54
99	111
111	178
112	7
113	18
125	156
139	43
140	57
141	63
