Mass spectrum: 6-SEC-BUTYL QUINOLINE; EI-MS
Formula: C13H15N
Exact mass: 185.12045
Instrument type: EI-MS
m/z	relative intensity
29	11
41	11
117	11
127	24
128	40
129	26
130	26
141	14
142	78
143	13
152	15
153	22
154	127
155	64
156	999
157	183
158	12
170	62
185	354
186	47
