Mass spectrum: ETHYLHYDRAZONE BUTYRALDEHYDE; EI-MS
Name: BUTYRALDEHYDE ETHYLHYDRAZONE
Formula: C6H14N2
Exact mass: 114.1157
Instrument type: EI-MS
m/z	relative intensity
27	433
28	400
29	433
30	999
31	73
40	40
41	333
42	26
43	500
44	831
45	80
46	3
53	17
54	28
55	63
56	9
57	223
58	107
59	40
68	6
69	40
70	173
71	147
72	6
85	466
86	260
87	13
97	5
99	731
100	53
113	40
114	60
115	75
