Mass spectrum: TETRAHYDROPYRAN-2-METHANOL; EI-MS
Formula: C6H12O2
Exact mass: 116.08373
Instrument type: EI-MS
m/z	relative intensity
15	29
26	27
27	201
28	11
29	372
30	15
31	243
32	4
38	10
39	134
40	25
41	55
42	32
43	277
44	34
45	2
51	13
53	31
54	12
55	15
56	50
57	268
58	15
59	1
60	15
84	50
85	999
86	6
116	6
