Mass spectrum: BENZYL METHYL ETHER; EI-MS
Formula: C8H10O
Exact mass: 122.07316
Instrument type: EI-MS
m/z	relative intensity
15	50
27	27
29	104
30	15
38	27
39	162
41	25
45	70
50	79
51	179
52	35
53	13
62	24
63	87
64	18
65	183
74	14
75	10
77	303
78	38
79	106
89	63
90	27
91	999
92	214
93	13
105	33
107	18
121	497
122	568
123	45
