Mass spectrum: 1,2-DIISOPROPYLHYDRAZINE; EI-MS
Formula: C6H16N2
Exact mass: 116.13135
Instrument type: EI-MS
m/z	relative intensity
27	175
28	56
29	46
30	15
31	999
32	107
39	73
40	2
41	252
42	179
43	764
44	23
45	13
56	93
57	35
58	47
59	444
60	18
72	12
73	51
74	38
85	12
99	11
101	64
102	48
115	14
116	640
117	75
