Mass spectrum: ALPHA-(4-DIMETHYLAMINOPHENYL)-OMEGA-(9-PHENANTHRYL)HEXANE; EI-MS
Name: 1-(4-DIMETHYLAMINOPHENYL)-6-(9-PHENANTHRYL)HEXANE
Formula: C28H31N
Exact mass: 381.24565
Instrument type: EI-MS
m/z	relative intensity
118	4
120	9
133	6
134	999
135	100
136	6
146	4
147	16
148	17
149	3
160	12
161	4
162	4
191	23
192	7
203	3
204	4
367	5
379	11
380	19
381	602
382	182
383	31
384	4
