Mass spectrum: 2-CYANOACETAMIDE; EI-MS
Formula: C3H4N2O
Exact mass: 84.03236
Instrument type: EI-MS
m/z	relative intensity
25	11
26	20
27	35
28	40
29	25
30	23
38	69
39	97
40	247
41	515
42	52
43	51
44	999
45	15
53	14
55	11
67	38
68	44
84	58
85	74
