Mass spectrum: PROPYLHYDRAZONE ACETALDEHYDE; EI-MS
Name: ACETALDEHYDE PROPYLHYDRAZONE
Formula: C5H12N2
Exact mass: 100.10005
Instrument type: EI-MS
m/z	relative intensity
28	15
29	67
30	670
31	2
39	35
40	16
41	93
42	27
43	78
44	37
54	6
55	1
56	25
57	37
58	40
69	1
71	999
72	50
85	25
99	1
100	289
101	45
