Mass spectrum: 2,3,5-TRIMETHYL-1,7-TRIMETHYLENEINDOLE; EI-MS
Formula: C14H17N
Exact mass: 199.1361
Instrument type: EI-MS
m/z	relative intensity
27	22
39	25
41	20
51	3
53	13
63	22
65	20
71.5	2
76	12
77	43
77.5	18
78	1
78.5	23
83.5	61
84	14
84.5	5
85.5	15
89	18
90	15
90.5	5
91	30
91.5	40
92	12
92.5	1
97.5	17
98.5	48
99	12
99.5	7
100	12
102	13
103	12
115	6
116	14
117	17
127	30
128	6
129	22
130	17
139	12
140	1
141	27
142	26
143	17
144	2
152	17
153	14
154	59
155	3
156	83
157	22
158	12
166	1
167	50
168	102
169	46
170	17
171	35
180	40
181	52
182	13
183	65
184	451
185	193
186	2
194	30
195	20
196	82
197	5
198	875
199	999
200	145
