Mass spectrum: PROCHLORPERAZINE; EI-MS
Name: 2-CHLORO-10-(3-(4-METHYL-1-PIPERAZINYL)PROPYL)-10H-PHENOTHIAZINE
Formula: C20H24ClN3S
Exact mass: 373.13795
Instrument type: EI-MS
m/z	relative intensity
56	75
57	41
58	145
70	851
71	180
72	18
84	51
85	55
97	18
99	31
111	35
113	999
114	68
127	150
141	477
198	64
214	64
232	110
233	159
234	30
235	33
246	40
247	22
259	21
260	19
272	67
273	42
274	16
373	445
374	72
375	140
