Mass spectrum: BENZYL BENZOATE; EI-MS
Formula: C14H12O2
Exact mass: 212.08373
Instrument type: EI-MS
m/z	relative intensity
50	29
51	102
63	20
65	82
77	259
79	44
90	74
91	446
105	999
106	86
165	10
167	50
194	68
195	11
212	238
213	41
