Mass spectrum: ETHYLENEDIAMINE; EI-MS
Formula: C2H8N2
Exact mass: 60.06875
Instrument type: EI-MS
m/z	relative intensity
14	15
15	34
16	12
17	3
18	120
26	12
27	46
28	2
29	45
30	999
31	33
40	2
41	20
42	60
43	53
44	4
45	15
58	10
59	10
60	27
