Mass spectrum: CYCLOHEXANONE OXIME; EI-MS
Formula: C6H11NO
Exact mass: 113.08406
Instrument type: EI-MS
m/z	relative intensity
41	750
42	335
54	420
55	59
59	565
67	300
72	450
113	999
