Mass spectrum: 2-HEXENAL O-2,3,4,5,6-PENTAFLUOROBENZYLOXIME; EI-MS
Formula: C13H12F5NO
Exact mass: 293.08391
Instrument type: EI-MS
m/z	relative intensity
42	97
43	160
44	105
51	7
52	6
53	56
54	82
55	24
57	10
67	29
69	9
70	13
71	47
80	36
81	10
93	20
99	29
112	23
117	32
150	7
161	22
167	10
181	999
182	65
195	10
250	172
