Mass spectrum: 1-METHYLETHYL PHENYLACETATE; EI-MS
Name: ISOPROPYL PHENYLACETATE
Formula: C11H14O2
Exact mass: 178.09938
Instrument type: EI-MS
m/z	relative intensity
15	11
27	75
38	12
39	114
41	152
42	16
43	786
44	22
45	11
50	12
51	36
52	10
62	11
63	46
64	15
65	154
77	10
89	48
90	41
91	999
92	275
93	15
119	51
178	118
179	14
