Mass spectrum: DIISOBUTYL PHTHALATE; EI-MS
Name: PHTHALIC ACID DIISOBUTYL ESTER
Formula: C16H22O4
Exact mass: 278.15181
Instrument type: EI-MS
m/z	relative intensity
29	27
41	61
56	27
57	145
65	18
76	36
93	24
104	52
105	14
121	27
149	999
150	89
167	37
205	16
223	23
