Mass spectrum: TRICOSANE; EI-MS
Formula: C23H48
Exact mass: 324.3756
Instrument type: EI-MS
m/z	relative intensity
27	60
29	180
39	24
41	327
42	95
43	913
44	20
53	13
54	21
55	261
56	143
57	999
58	33
67	18
68	20
69	139
70	104
71	589
72	28
82	15
83	87
84	52
85	370
86	17
97	57
98	30
99	107
111	19
112	22
113	57
126	15
127	34
140	15
141	24
154	12
155	18
169	16
183	11
197	10
