Mass spectrum: ETHYL (2R,3R,4S)-2,4-DIMETHYL-3-HYDROXYHEXANOATE; EI-MS
Formula: C10H20O3
Exact mass: 188.14124
Instrument type: EI-MS
m/z	relative intensity
41	35
43	30
45	30
56	15
57	252
58	136
69	29
74	8
75	61
86	32
87	22
102	999
103	61
125	49
130	32
131	61
132	32
189	22
