Mass spectrum: ETHYL CINNAMATE; EI-MS
Formula: C11H12O2
Exact mass: 176.08373
Instrument type: EI-MS
m/z	relative intensity
29	169
45	28
51	30
69	28
77	420
78	60
91	73
102	134
103	696
104	265
105	32
115	12
117	16
120	14
130	53
131	999
132	114
133	15
147	107
148	118
149	15
158	15
175	20
176	195
177	27
