Mass spectrum: 3,3-DIMETHYL-1,2,3,4-TETRAHYDRO-GAMMA-CARBOLINE-1-SPIROCYCLOHEXANE; EI-MS
Formula: C18H24N2
Exact mass: 268.19395
Instrument type: EI-MS
m/z	relative intensity
42	22
43	12
77	11
115	4
155	80
182	39
183	40
197	8
211	80
212	92
225	999
226	19
239	40
267	37
268	210
