Mass spectrum: 3-(3-OXOBUTYL)CYCLOHEX-2-EN-1-ONE; EI-MS
Name: 3-(3-OXOBUTYL)-2-CYCLOHEXENONE
Formula: C10H14O2
Exact mass: 166.09938
Instrument type: EI-MS
m/z	relative intensity
14	57
15	115
17	368
18	266
27	191
32	59
39	312
41	256
42	51
43	999
51	62
53	11
55	125
65	75
66	63
67	218
77	70
79	102
81	78
95	478
96	60
108	255
109	67
110	86
123	488
124	89
106	177
