Mass spectrum: 2,3-BUTANEDIOL; EI-MS
Formula: C4H10O2
Exact mass: 90.06808
Instrument type: EI-MS
m/z	relative intensity
15	31
19	51
26	11
27	98
28	44
29	107
31	22
42	15
43	133
44	46
45	999
46	32
47	50
55	16
57	88
75	22
