Mass spectrum: 4-BENZYL-3,4,5-TRIMETHYLPYRAZOLE; EI-MS
Formula: C13H16N2
Exact mass: 200.13135
Instrument type: EI-MS
m/z	relative intensity
26	24
27	114
28	90
29	3
30	15
38	21
39	227
40	5
41	158
42	189
43	23
50	4
51	110
52	34
53	87
54	4
55	41
56	31
62	15
63	8
64	28
65	330
66	52
67	3
68	53
69	28
76	14
77	10
78	33
79	45
80	21
81	3
82	28
89	75
90	35
91	999
92	107
93	10
95	13
96	1
99	13
100	25
103	19
104	4
105	12
108	20
109	639
110	9
115	45
116	25
117	33
118	2
122	14
123	261
124	24
128	2
129	15
130	16
141	13
142	2
143	25
144	51
145	13
156	1
157	28
158	40
168	12
170	1
171	10
182	37
183	19
184	2
185	516
186	77
197	10
198	2
199	660
200	619
201	96
202	8
