Mass spectrum: DIETHOXYDIMETHYLSILANE; EI-MS
Formula: C6H16O2Si
Exact mass: 148.09196
Instrument type: EI-MS
m/z	relative intensity
27	17
28	21
29	14
43	35
45	95
47	41
58	17
59	124
61	72
63	19
66	21
73	28
75	150
76	17
77	328
78	19
89	372
90	28
91	17
103	255
104	25
105	186
106	14
133	999
134	103
135	43
147	10
