Mass spectrum: TRIFLUOROACETIC ACID ETHYL ESTER; EI-MS
Name: ETHYL TRIFLUOROACETATE
Formula: C4H5F3O2
Exact mass: 142.02416
Instrument type: EI-MS
m/z	relative intensity
15	35
26	46
27	278
28	134
29	999
30	25
31	54
33	27
43	29
44	40
45	20
47	17
50	22
51	17
69	275
73	10
97	12
99	58
115	10
127	19
141	38
142	12
