Mass spectrum: HEXANAL DIBENZYL ACETAL; EI-MS
Formula: C20H26O2
Exact mass: 298.19328
Instrument type: EI-MS
m/z	relative intensity
27	16
29	11
39	23
41	17
43	18
51	18
65	57
77	28
79	28
89	13
90	12
91	999
92	187
93	11
105	15
107	58
108	19
181	30
