Mass spectrum: 2,5-DIHYDROXY-4-METHOXYACETOPHENONE; EI-MS
Formula: C9H10O4
Exact mass: 182.05791
Instrument type: EI-MS
m/z	relative intensity
43	29
78	81
79	20
83	10
96	27
97	14
107	20
111	77
124	20
139	13
149	17
152	29
164	26
167	999
168	90
169	12
181	11
182	786
183	83
