Mass spectrum: 3,6-DIMETHYL-4H-PYRIDO(1,2-A)PYRIMIDIN-4-ONE; EI-MS
Formula: C10H10N2O
Exact mass: 174.07931
Instrument type: EI-MS
m/z	relative intensity
38	40
39	233
40	40
41	3
51	40
52	50
53	27
54	3
58	30
63	40
64	67
65	30
66	97
77	23
78	33
87	2
91	53
92	600
93	300
94	2
105	13
118	30
119	33
131	2
143	17
144	30
145	800
146	53
147	47
173	27
174	999
175	11
176	7
