Mass spectrum: 1,3,4-TRIMETHYL-2-PYRAZOLINE; EI-MS
Formula: C6H12N2
Exact mass: 112.10005
Instrument type: EI-MS
m/z	relative intensity
26	18
27	81
28	187
29	4
30	78
38	10
39	94
40	3
41	178
42	625
43	141
44	3
51	10
52	10
53	31
54	3
55	26
56	260
57	14
66	1
67	11
68	108
69	88
70	14
71	10
80	4
81	10
82	2
95	28
96	17
97	999
98	6
109	14
110	23
111	438
112	73
113	53
