Mass spectrum: PROPYL PYRUVATE; EI-MS
Formula: C6H10O3
Exact mass: 130.06299
Instrument type: EI-MS
m/z	relative intensity
14	13
15	62
26	12
27	159
29	35
39	49
41	189
42	47
43	999
44	24
71	11
73	11
