Mass spectrum: CYCLOHEXENE; EI-MS
Formula: C6H10
Exact mass: 82.07825
Instrument type: EI-MS
m/z	relative intensity
15	12
26	33
27	180
28	37
29	28
37	13
38	32
39	337
40	46
41	357
42	28
50	52
51	80
52	39
53	117
54	720
55	52
63	14
65	39
66	26
67	999
68	59
77	50
78	14
79	68
80	10
81	107
82	387
83	26
