Mass spectrum: 4-(3-(4-HYDROXYPHENOXY)PROPYL)MORPHOLINE; EI-MS
Formula: C13H19NO3
Exact mass: 237.13649
Instrument type: EI-MS
m/z	relative intensity
41	2
43	4
44	78
55	7
56	75
57	30
59	12
67	16
68	33
69	12
70	149
71	27
79	12
81	53
82	12
83	14
84	33
85	22
87	110
91	33
93	13
94	10
95	25
96	24
97	44
98	46
99	218
100	999
101	93
105	15
107	9
110	26
111	22
112	19
113	12
114	8
117	10
119	7
121	29
122	12
123	23
124	9
125	6
126	28
127	24
128	209
129	26
131	9
133	16
134	2
135	29
136	23
137	9
138	2
139	4
145	7
146	24
147	21
148	25
150	13
151	24
152	13
159	2
160	67
161	7
162	24
164	5
165	7
173	20
175	11
177	3
180	5
183	28
189	19
190	5
192	2
194	2
195	16
204	8
206	15
208	12
209	13
219	4
221	7
222	17
223	3
235	9
237	85
239	47
