Mass spectrum: 2-OCTANOYLFURAN; EI-MS
Name: 1-(2-FURANYL)-1-OCTANONE
Formula: C12H18O2
Exact mass: 194.13068
Instrument type: EI-MS
m/z	relative intensity
27	19
29	80
39	88
40	10
41	120
42	31
43	100
53	20
55	150
56	19
57	30
61	10
67	39
68	86
69	23
70	10
79	10
80	10
81	68
82	40
83	10
84	10
94	18
95	652
96	45
97	40
98	10
109	10
110	999
111	178
112	10
123	325
124	40
137	10
151	29
152	10
194	8
