Mass spectrum: EPOXYVULGARONE A; EI-MS
Formula: C15H22O2
Exact mass: 234.16198
Instrument type: EI-MS
m/z	relative intensity
40	175
41	810
42	145
43	37
50	35
51	110
52	80
53	30
54	90
55	440
56	480
57	8
63	60
64	50
65	230
66	10
67	330
68	110
69	310
70	5
71	40
77	450
78	145
79	49
80	125
81	520
82	140
83	10
84	55
85	90
89	40
91	70
92	140
93	380
94	140
95	52
96	130
97	60
98	90
103	10
104	60
105	590
106	999
107	79
108	320
109	290
110	70
111	6
115	90
116	45
117	70
118	6
119	910
120	350
121	390
122	17
123	90
124	60
128	60
129	5
130	40
131	70
132	45
133	18
134	110
135	220
136	70
137	43
138	70
145	115
146	30
147	25
148	80
149	95
150	40
151	8
161	50
162	30
163	65
173	5
175	145
176	50
190	260
191	10
206	65
207	15
219	65
220	3
234	65
235	25
