Mass spectrum: 1,3,5-PENTANETRICARBOXYLIC ACID TRIS(TRIMETHYLSILYL) ESTER; EI-MS
Formula: C17H36O6Si3
Exact mass: 420.18197
Instrument type: EI-MS
m/z	relative intensity
43	68
44	39
45	107
47	5
53	11
55	244
57	22
59	2
61	28
67	73
69	28
72	6
73	999
74	90
75	352
76	2
77	96
81	28
83	11
95	12
97	11
101	17
109	28
116	9
117	79
122	22
123	278
124	2
129	204
130	22
131	22
133	5
141	34
143	28
145	11
147	34
148	56
149	113
150	17
151	5
153	34
157	22
158	130
159	1
169	107
170	17
171	238
172	2
173	11
185	73
186	56
187	1
189	28
197	34
199	136
200	1
201	11
203	22
204	375
205	7
206	28
212	11
213	39
217	6
219	39
225	11
241	28
243	4
245	11
262	11
273	34
276	4
287	28
289	28
302	153
303	3
304	11
330	34
331	11
405	49
406	142
407	62
