Mass spectrum: 1-(META-NITROPHENYL)HEPTAMETHYLTRISILANE; EI-MS
Formula: C13H25NO2Si3
Exact mass: 311.11931
Instrument type: EI-MS
m/z	relative intensity
40	73
56	49
73	999
74	88
75	60
117	90
119	124
131	228
132	45
133	122
134	118
135	37
147	111
148	34
149	34
164	75
177	33
180	38
193	93
296	35
311	116
312	36
