Mass spectrum: NAPHTHALENE; EI-MS
Formula: C10H8
Exact mass: 128.0626
Instrument type: EI-MS
m/z	relative intensity
44	35
50	40
51	99
52	44
62	48
63	76
64	61
67	4
74	82
75	50
76	54
77	4
78	44
86	42
91	46
101	5
102	131
126	76
127	143
128	999
129	97
