Mass spectrum: (2S)-N-TERT-BUTOXYCARBONYL-2-(4-(1-ETHOXYETHOXY)-1-OXOBUTYL)PYRROLIDINE; EI-MS
Formula: C17H31NO5
Exact mass: 329.22022
Instrument type: EI-MS
m/z	relative intensity
57	71
70	485
114	999
115	21
140	27
170	852
171	38
184	23
240	7
