Mass spectrum: N-(3-(3,4,5-TRIMETHOXYPHENYL)-2-PROPENOYL)PIPERIDIN-2-ONE; EI-MS
Name: N-(3,4,5-TRIMETHOXY)CINNAMOYLPIPERIDIN-2-ONE
Formula: C17H21NO5
Exact mass: 319.14197
Instrument type: EI-MS
m/z	relative intensity
41	20
43	80
45	20
55	50
56	50
57	70
69	30
70	30
71	40
79	20
81	20
82	50
83	30
84	40
85	20
90	20
91	30
97	20
98	20
99	20
100	60
101	10
105	10
109	10
111	20
112	10
113	10
117	20
118	130
119	20
132	10
133	10
134	10
135	20
136	10
141	10
145	10
147	30
149	80
159	10
160	10
161	20
162	50
163	50
175	20
176	20
177	110
178	50
179	30
189	20
190	130
191	60
192	70
193	120
194	70
195	20
205	120
206	60
220	60
221	880
222	160
223	30
248	20
260	10
274	50
276	380
277	80
291	290
292	60
293	10
304	110
305	20
319	999
320	190
321	30
