Mass spectrum: METHYL BUTYRATE; EI-MS
Formula: C5H10O2
Exact mass: 102.06808
Instrument type: EI-MS
m/z	relative intensity
14	17
15	292
26	38
27	330
28	60
29	69
31	50
33	16
37	10
38	24
39	168
40	25
41	357
42	105
43	886
44	30
45	27
55	100
59	249
69	20
70	13
71	753
72	34
74	999
75	36
87	250
88	12
101	12
102	44
