Mass spectrum: IODOBENZENE; EI-MS
Formula: C6H5I
Exact mass: 203.94359
Instrument type: EI-MS
m/z	relative intensity
27	19
37	19
38	19
39	20
49	19
50	180
51	319
52	13
73	17
74	66
75	34
76	42
77	798
78	56
102	22
127	33
204	999
205	67
