Mass spectrum: 1-BUTENE; EI-MS
Name: BUTENE-1
Formula: C4H8
Exact mass: 56.0626
Instrument type: EI-MS
m/z	relative intensity
14	18
15	49
25	15
25.5	10
26	112
27	300
28	268
29	122
30	11
37	45
38	61
39	400
40	79
41	999
42	34
49	23
50	64
51	49
52	15
53	60
54	29
55	201
56	390
57	18
58	1
