Mass spectrum: 19-NORTESTOSTERONE; EI-MS
Formula: C18H26O2
Exact mass: 274.19328
Instrument type: EI-MS
m/z	relative intensity
27	73
28	59
29	105
31	18
39	109
40	25
41	356
42	2
43	163
44	15
51	28
52	2
53	143
54	23
55	283
56	2
57	79
58	18
65	91
66	4
67	248
68	58
69	64
71	4
77	229
78	74
79	326
80	9
81	204
82	36
83	60
84	1
85	18
86	17
91	372
92	9
93	248
94	102
95	160
96	5
97	114
98	15
99	11
101	1
103	34
104	41
105	267
106	9
107	242
108	137
109	199
110	90
111	107
115	51
116	25
117	10
118	58
119	170
120	175
121	18
122	124
123	184
124	57
128	3
129	53
130	27
131	131
132	7
133	143
134	115
135	155
136	5
137	20
141	20
142	19
143	4
144	40
145	106
146	119
147	22
148	129
149	68
150	21
151	3
152	15
153	11
155	16
156	2
157	40
158	33
159	93
160	14
161	87
162	50
163	35
164	6
165	86
166	23
169	17
170	2
171	38
172	29
173	125
174	10
175	82
176	18
183	19
184	2
185	44
186	32
187	75
188	6
189	32
190	26
197	75
198	3
199	66
200	27
201	37
202	8
203	41
204	18
212	30
213	33
214	74
215	200
216	56
217	9
218	42
228	21
229	14
230	7
231	173
232	163
233	25
238	2
239	12
241	39
246	74
247	1
256	160
257	34
259	12
274	999
275	208
276	24
