Mass spectrum: BETA-BUTYROLACTONE; EI-MS
Formula: C4H6O2
Exact mass: 86.03678
Instrument type: EI-MS
m/z	relative intensity
27	165
28	125
29	132
38	10
39	237
40	123
41	324
42	999
43	561
44	276
71	42
