Mass spectrum: FLAVANONE; EI-MS
Name: 2-PHENYLCHROMAN-4-ONE
Formula: C15H12O2
Exact mass: 224.08373
Instrument type: EI-MS
m/z	relative intensity
28	89
38	34
39	106
50	7
51	142
52	33
53	20
62	3
63	205
64	244
65	114
75	2
76	53
77	264
78	217
89	3
91	83
92	740
93	80
102	5
103	307
104	677
105	70
120	999
121	280
131	46
146	57
147	68
148	52
149	37
207	82
223	70
224	945
225	177
