Mass spectrum: 1,2,3,5-TETRA-O-ACETYL-4,6-DI-O-METHYLMANNITOL; EI-MS
Formula: C16H26O10
Exact mass: 378.1526
Instrument type: EI-MS
m/z	relative intensity
43	999
44	50
45	230
55	20
60	20
69	50
71	90
74	50
85	150
86	20
87	150
89	20
97	10
98	10
99	160
100	20
101	220
111	40
113	40
115	70
127	160
129	580
159	80
161	480
187	30
201	70
261	200
