Mass spectrum: 10-(2-DIMETHYLAMINOPROPYL)-PHENOTHIAZINE; EI-MS
Name: PHENERGAN
Formula: C17H20N2S
Exact mass: 284.13472
Instrument type: EI-MS
m/z	relative intensity
72	999
73	39
180	19
198	3
199	19
213	29
284	39
285	9
