Mass spectrum: 3-PENTANONE; EI-MS
Formula: C5H10O
Exact mass: 86.07316
Instrument type: EI-MS
m/z	relative intensity
42	13
43	15
53	10
55	13
56	47
57	999
58	34
86	173
87	12
