Mass spectrum: (1R*,2R*)-3-METHYL-1-(P-METHOXYPHENYL)-2-(1-PYRROLIDINYL)BUTANOL; EI-MS
Formula: C16H25NO2
Exact mass: 263.18853
Instrument type: EI-MS
m/z	relative intensity
70	20
84	22
126	999
127	78
230	12
263	1
