Mass spectrum: D-LIMONENE 1,2-EPOXIDE; EI-MS
Formula: C10H16O
Exact mass: 152.12012
Instrument type: EI-MS
m/z	relative intensity
15	270
17	10
18	160
26	9
27	550
28	320
29	550
30	2
31	100
37	20
39	680
40	41
41	750
42	400
43	999
44	57
45	290
50	160
51	400
52	26
53	600
54	410
55	860
56	39
57	190
58	180
59	130
62	4
63	150
64	40
65	420
66	29
67	910
68	610
69	710
70	14
71	640
72	110
74	10
75	1
77	530
78	210
79	850
80	39
81	690
82	640
83	520
84	53
85	50
88	10
91	600
92	38
93	860
94	880
95	880
96	28
97	310
98	10
102	10
103	5
104	20
105	340
106	170
107	46
108	870
109	970
110	450
111	17
115	20
117	50
120	610
121	8
122	610
123	250
124	20
129	5
133	20
134	260
135	40
136	4
137	780
138	140
151	20
152	33
153	30
