Mass spectrum: 1,3-DIMETHYLPYRAZOLE; EI-MS
Formula: C5H8N2
Exact mass: 96.06875
Instrument type: EI-MS
m/z	relative intensity
26	37
27	87
28	110
29	1
30	13
38	18
39	51
40	4
41	92
42	141
43	60
50	3
51	57
52	66
53	94
54	13
55	69
56	38
66	30
67	3
68	121
69	16
80	11
81	17
82	11
93	7
94	14
95	70
96	999
97	64
98	3
