Mass spectrum: DIETHYL PHTHALATE; EI-MS
Formula: C12H14O4
Exact mass: 222.08921
Instrument type: EI-MS
m/z	relative intensity
27	22
29	27
39	12
50	34
51	16
65	69
66	16
74	11
75	15
76	82
77	31
93	49
104	65
105	72
106	12
121	43
122	28
132	15
149	999
150	126
151	11
176	61
177	259
178	46
222	36
