Mass spectrum: 5-FLUOROURACIL; EI-MS
Formula: C4H3FN2O2
Exact mass: 130.01786
Instrument type: EI-MS
m/z	relative intensity
28	280
29	50
58	90
59	1
60	320
87	470
88	90
130	999
131	160
