Mass spectrum: 2-METHYLVALERIC ACID; EI-MS
Formula: C6H12O2
Exact mass: 116.08373
Instrument type: EI-MS
m/z	relative intensity
15	16
26	21
27	236
28	50
29	159
30	26
31	14
38	11
39	150
40	19
41	267
42	56
43	470
44	15
45	100
53	17
55	96
56	56
57	17
59	16
69	22
70	11
71	66
73	144
74	999
75	30
87	149
101	21
