Mass spectrum: HIPPURIC ACID; EI-MS
Formula: C9H9NO3
Exact mass: 179.05824
Instrument type: EI-MS
m/z	relative intensity
51	357
52	30
53	12
55	18
56	28
57	21
67	13
69	24
73	16
74	42
75	36
76	118
77	960
78	76
81	12
103	12
104	110
105	999
106	125
133	12
134	211
135	272
136	27
161	13
179	25
