Mass spectrum: PENTAFLUOROBENZALDEHYDE; EI-MS
Formula: C7HF5O
Exact mass: 195.99476
Instrument type: EI-MS
m/z	relative intensity
43	15
55	51
56	34
57	9
60	4
61	28
68	29
69	49
74	65
75	82
79	197
80	52
86	46
87	4
93	211
98	224
99	517
100	27
110	28
117	588
118	98
124	15
129	27
130	6
137	108
148	132
149	52
161	5
167	500
168	261
169	7
195	948
196	999
197	80
