Mass spectrum: 2-(N-ACETYL-2-ACETOXYETHYLAMINO)TOLUENE; EI-MS
Name: 2-(N-ACETYL-2-ACETOXYETHYLAMINO)-1-METHYLBENZENE
Formula: C13H17NO3
Exact mass: 235.12084
Instrument type: EI-MS
m/z	relative intensity
41	20
43	999
44	20
51	4
63	20
65	155
68	20
77	8
78	35
79	25
87	325
89	3
90	20
91	375
92	45
93	2
104	30
105	30
106	80
107	20
117	90
118	790
119	105
120	99
121	360
128	20
132	150
133	65
134	140
149	285
150	50
160	3
162	120
175	985
176	150
193	5
235	125
236	35
