Mass spectrum: BENZOIN; EI-MS
Formula: C14H12O2
Exact mass: 212.08373
Instrument type: EI-MS
m/z	relative intensity
27	22
29	18
39	30
50	46
51	178
52	29
53	17
63	18
74	12
75	11
76	19
77	562
78	94
79	390
80	29
89	13
105	999
106	131
107	714
108	64
165	16
167	15
195	66
196	13
212	44
213	22
