Mass spectrum: OCTANEDIOIC ACID BIS(TRIMETHYLSILYL) ESTER; EI-MS
Name: DI(TRIMETHYLSILYL) OCTANEDIOATE
Formula: C14H30O4Si2
Exact mass: 318.16826
Instrument type: EI-MS
m/z	relative intensity
43	106
45	124
55	325
69	11
73	999
74	130
75	772
76	9
83	227
93	139
95	183
97	16
111	106
117	227
129	284
138	18
139	331
147	360
149	295
169	47
185	139
187	494
204	112
217	25
259	59
303	547
304	130
305	56
