Mass spectrum: (3,5-DI-TERT-BUTYLPHENYL)TRIMETHYLSILANE; EI-MS
Formula: C17H30Si
Exact mass: 262.21168
Instrument type: EI-MS
m/z	relative intensity
45	23
57	86
59	36
73	253
74	21
75	12
102	55
116	46
117	11
175	26
215	12
231	42
232	15
247	999
248	239
249	63
262	119
263	31
