Mass spectrum: 4,7,7,11BETA-TETRAMETHYL-5BETA,8ALPHA-TRICYCLO(6.3.0.0(1,5))UNDEC-3-ENE; EI-MS
Formula: C15H24
Exact mass: 204.1878
Instrument type: EI-MS
m/z	relative intensity
55	43
43	55
77	41
81	21
91	104
92	29
93	116
94	4
95	67
105	162
106	299
107	17
108	43
109	58
119	197
120	10
121	101
122	101
123	999
124	7
131	32
133	339
134	81
135	4
145	32
147	432
148	438
149	16
161	119
162	67
175	46
189	81
190	125
204	583
205	78
