Mass spectrum: ETHYL ACETATE; EI-MS
Formula: C4H8O2
Exact mass: 88.05243
Instrument type: EI-MS
m/z	relative intensity
14	17
15	90
26	23
27	102
28	21
29	157
30	10
31	10
42	60
43	999
44	26
45	131
61	127
70	74
73	46
88	51
