Mass spectrum: 3-METHYL-3-PENTANOL; EI-MS
Formula: C6H14O
Exact mass: 102.10447
Instrument type: EI-MS
m/z	relative intensity
15	18
18	38
26	12
27	81
29	89
31	39
39	32
41	64
42	14
43	147
44	12
45	160
46	11
51	11
53	22
55	261
56	25
57	40
58	11
69	38
71	10
73	999
74	52
85	21
87	112
