Mass spectrum: DIETHOXY METHYL OCTYLSILANE; EI-MS
Formula: C13H30O2Si
Exact mass: 246.20151
Instrument type: EI-MS
m/z	relative intensity
41	14
43	23
45	27
61	66
63	18
73	28
75	12
77	100
89	158
90	13
91	25
105	70
119	97
120	10
133	999
134	109
135	41
147	14
231	50
232	9
233	3
246	1
