Mass spectrum: METHYL MANDELATE; EI-MS
Name: MANDELIC ACID METHYL ESTER
Formula: C9H10O3
Exact mass: 166.06299
Instrument type: EI-MS
m/z	relative intensity
29	10
77	193
79	32
80	500
81	35
105	50
106	18
107	999
108	79
166	139
167	15
