Mass spectrum: 1,2-BENZENEDICARBOXYLIC ACID (BUTOXYCARBONYLMETHYL) BUTYL ESTER; EI-MS
Formula: C18H24O6
Exact mass: 336.15729
Instrument type: EI-MS
m/z	relative intensity
4	183
29	94
41	123
42	19
43	19
44	3
49	15
55	25
56	187
57	349
58	13
60	21
61	13
65	3
73	5
76	6
77	351
78	7
87	3
93	8
101	3
104	64
105	60
106	5
114	1
121	16
122	13
123	4
132	68
133	249
134	17
135	6
147	1
148	1
149	999
150	114
151	13
157	2
160	24
161	3
162	10
163	7
203	2
204	3
205	46
206	7
207	92
208	11
209	1
263	400
264	58
265	8
281	9
282	1
336	2
