Mass spectrum: 1-BROMO-4-TRIMETHYLSILOXYBENZENE; EI-MS
Formula: C9H13BrOSi
Exact mass: 243.9919
Instrument type: EI-MS
m/z	relative intensity
42	13
43	71
44	36
45	107
46	29
47	25
50	60
51	25
53	30
55	19
57	11
58	18
59	18
60	23
61	46
62	35
63	94
64	48
65	153
66	15
67	19
72	14
73	466
74	68
75	171
76	83
77	40
79	17
85	13
86	19
87	21
89	29
90	40
91	100
92	23
93	99
94	10
100	22
101	15
105	16
107	11
109	14
114	178
115	174
116	31
117	14
119	15
121	44
123	23
125	21
135	174
136	29
137	278
138	20
139	270
140	19
141	13
143	35
145	35
148	13
149	262
150	495
151	62
152	24
155	65
157	62
164	11
169	16
171	35
172	262
173	39
174	260
175	22
199	26
201	32
213	14
215	15
229	992
230	143
231	999
232	140
233	45
244	720
245	112
246	716
247	104
248	34
