Mass spectrum: 4,7-DIMETHOXYCOUMARIN; EI-MS
Formula: C11H10O4
Exact mass: 206.05791
Instrument type: EI-MS
m/z	relative intensity
92	50
119	20
120	50
135	200
148	100
149	30
163	210
164	30
178	540
179	70
205	40
206	999
207	110
