Mass spectrum: N-(METHYL)-N-TRIMETHYLSILYLBENZYLAMINE; EI-MS
Formula: C11H19NSi
Exact mass: 193.12868
Instrument type: EI-MS
m/z	relative intensity
15	30
27	23
28	93
35	34
36	169
38	60
41	22
42	11
43	158
44	100
45	184
50	2
51	67
57	22
58	49
59	24
60	22
63	30
65	144
72	3
73	759
74	72
75	75
77	8
78	30
81	37
82	23
86	6
89	59
91	442
92	76
93	8
95	30
100	45
102	53
105	4
107	25
115	45
116	974
117	13
118	88
119	39
120	137
121	10
135	810
136	116
137	35
147	3
149	324
150	49
162	43
164	9
176	73
178	999
179	198
180	5
192	176
193	920
194	178
195	40
