Mass spectrum: 2,2-DIMETHYL-1-PENTANOL; EI-MS
Formula: C7H16O
Exact mass: 116.12012
Instrument type: EI-MS
m/z	relative intensity
27	27
29	69
31	38
39	13
41	190
42	19
43	999
44	39
45	86
55	204
56	95
57	254
58	13
59	36
69	80
70	10
72	14
73	86
83	29
84	161
85	464
86	28
101	2
115	1
