Mass spectrum: ALLYL VALERATE; EI-MS
Formula: C8H14O2
Exact mass: 142.09938
Instrument type: EI-MS
m/z	relative intensity
15	17
26	34
27	224
29	396
30	11
31	18
38	19
39	334
40	23
41	942
42	74
43	91
45	15
53	13
54	46
55	242
56	92
57	966
58	79
59	50
82	18
83	54
85	999
86	58
99	11
100	153
101	14
103	13
113	33
