Mass spectrum: MENTHENYL KETONE; EI-MS
Name: 1-(PARA-MENTHEN-6-YL)-1-PROPANONE
Formula: C13H22O
Exact mass: 194.16707
Instrument type: EI-MS
m/z	relative intensity
17	11
27	142
28	21
29	361
39	80
41	214
42	14
43	137
51	24
53	70
55	67
57	755
58	21
59	29
65	41
66	14
67	65
68	21
69	148
77	121
78	21
79	121
80	18
81	999
82	61
83	15
91	92
92	69
93	231
94	30
95	240
96	21
105	15
107	13
109	18
121	21
122	13
123	19
134	12
136	95
137	394
138	49
165	18
194	65
195	11
