Mass spectrum: 7-METHYL-4-OXO-6,7,8,9-TETRAHYDRO-4H-PYRIDO(1,2-A)PYRIMIDINE-3-ACETIC ACID ETHYL ESTER; EI-MS
Formula: C13H18N2O3
Exact mass: 250.13174
Instrument type: EI-MS
m/z	relative intensity
39	108
41	85
42	33
53	4
54	52
55	95
67	23
68	2
69	36
80	26
82	30
96	4
133	20
135	111
161	26
162	5
163	36
176	33
177	999
178	21
204	98
205	69
250	197
251	23
