Mass spectrum: 4-BROMO-1-BUTENE; EI-MS
Formula: C4H7Br
Exact mass: 133.97311
Instrument type: EI-MS
m/z	relative intensity
37	20
38	31
39	177
40	14
41	155
42	76
43	993
44	22
50	16
53	59
54	34
55	999
56	53
57	15
58	484
59	16
80	19
82	19
108	15
134	62
136	60
