Mass spectrum: BUTYL SALICYLATE; EI-MS
Name: BUTYL ORTHO HYDROXY BENZOATE
Formula: C11H14O3
Exact mass: 194.09429
Instrument type: EI-MS
m/z	relative intensity
27	39
29	126
39	99
41	121
43	29
53	18
55	35
56	29
57	60
63	33
64	43
65	120
69	11
71	17
92	188
93	80
120	999
121	267
122	22
138	221
139	23
194	117
195	15
