Mass spectrum: M-BROMOACETOPHENONE; EI-MS
Formula: C8H7BrO
Exact mass: 197.96803
Instrument type: EI-MS
m/z	relative intensity
15	66
26	12
27	13
37	30
38	62
39	33
43	424
49	2
50	287
51	81
61	25
62	4
63	54
73	36
74	173
75	26
76	295
77	67
79	16
81	2
90	25
91	21
104	41
155	43
156	37
157	446
158	33
183	999
184	71
185	896
186	67
198	42
199	42
200	388
201	40
