Mass spectrum: BUTYRIC ANHYDRIDE; EI-MS
Formula: C8H14O3
Exact mass: 158.09429
Instrument type: EI-MS
m/z	relative intensity
27	27
41	50
42	13
43	382
44	13
55	16
60	49
70	15
71	999
72	49
