Mass spectrum: OCTYL P-TOLUENESULFONATE; EI-MS
Name: 4-METHYLBENZENESULFONIC ACID OCTYL ESTER
Formula: C15H24O3S
Exact mass: 284.14462
Instrument type: EI-MS
m/z	relative intensity
41	341
42	157
43	224
55	381
56	453
57	203
65	156
68	69
69	399
70	508
71	82
82	73
83	324
84	678
85	52
91	630
92	107
107	46
111	50
112	613
113	60
155	295
157	47
172	381
173	999
174	103
175	54
284	3
