Mass spectrum: CIS-P-MENTHANE; EI-MS
Formula: C10H20
Exact mass: 140.1565
Instrument type: EI-MS
m/z	relative intensity
27	111
29	83
39	132
40	20
41	317
42	40
43	178
51	11
53	55
54	57
55	999
56	70
57	26
65	12
67	66
68	38
69	177
70	20
77	16
79	16
81	233
82	22
83	47
95	15
96	553
97	879
98	65
140	110
141	11
