Mass spectrum: P-NONYL PHENOL; EI-MS
Formula: C15H24O
Exact mass: 220.18272
Instrument type: EI-MS
m/z	relative intensity
27	28
29	75
39	34
41	152
43	83
55	88
57	37
65	23
77	66
91	55
95	45
107	512
108	31
119	28
121	493
122	48
134	43
135	999
136	101
149	344
150	35
163	94
177	50
191	55
220	73
