Mass spectrum: QUINOLINE; EI-MS
Formula: C9H7N
Exact mass: 129.05785
Instrument type: EI-MS
m/z	relative intensity
27	19
37	10
38	19
39	4
42	15
43	202
50	74
51	9
52	24
58	60
62	20
63	4
64.5	34
74	51
75	80
76	10
77	35
78	28
101	62
102	27
103	75
127	15
128	175
129	999
130	103
