Mass spectrum: 1-(1-NAPHTHYL)ETHYL ALCOHOL; EI-MS
Formula: C12H12O
Exact mass: 172.08882
Instrument type: EI-MS
m/z	relative intensity
27	45
29	95
39	45
43	20
44	28
45	34
50	38
51	7
52	14
62	21
63	65
64	3
65	10
74	42
75	62
76	5
77	88
78	36
79	25
86	1
87	21
89	19
98	12
101	4
102	60
103	13
115	48
126	8
127	282
128	484
129	999
130	11
139	18
141	20
143	16
151	2
152	47
153	48
154	18
155	5
156	13
157	389
158	47
171	1
172	415
173	57
