Mass spectrum: HEXYL ACETATE; EI-MS
Formula: C8H16O2
Exact mass: 144.11503
Instrument type: EI-MS
m/z	relative intensity
15	47
27	94
28	29
29	91
31	12
39	63
41	179
42	168
43	999
44	26
54	14
55	212
56	405
57	28
58	26
61	237
69	125
71	11
73	79
83	22
84	213
85	14
101	11
