Mass spectrum: TRIETHYLENE GLYCOL; EI-MS
Formula: C6H14O4
Exact mass: 150.08921
Instrument type: EI-MS
m/z	relative intensity
18	48
19	33
27	55
28	6
29	49
31	75
43	65
44	7
45	999
46	22
58	125
59	6
75	105
87	51
88	35
89	16
90	54
119	37
