Mass spectrum: DIBENZOSUBERANE; EI-MS
Name: 10,11-DIHYDRO-5H-DIBENZO(A,D)CYCLOHEPTENE
Formula: C15H14
Exact mass: 194.10955
Instrument type: EI-MS
m/z	relative intensity
18	26
27	38
39	59
50	22
51	50
52	14
62	17
63	62
64	12
65	31
74	15
75	19
76	33
77	48
78	37
82	18
83	35
87	15
88	17
89	115
90	24
91	60
95	21
96	44
97	13
102	21
103	28
115	243
116	221
117	72
121	11
126	14
127	18
128	58
129	11
139	38
141	19
150	15
151	31
152	89
153	31
163	30
164	24
165	200
166	64
167	19
176	43
177	41
178	434
179	572
180	91
187	11
188	10
189	90
190	37
191	96
192	62
193	528
194	999
195	159
196	12
