Mass spectrum: ACETIC ACID BUTYL ESTER; EI-MS
Name: BUTYL ACETATE
Formula: C6H12O2
Exact mass: 116.08373
Instrument type: EI-MS
m/z	relative intensity
15	38
27	50
28	31
29	67
31	13
39	29
41	145
42	25
43	999
44	25
55	71
56	399
57	32
58	18
61	129
71	14
73	147
87	13
