Mass spectrum: BENZYLIDENEACETONE; EI-MS
Name: TRANS-4-PHENYL-3-BUTEN-2-ONE
Formula: C10H10O
Exact mass: 146.07316
Instrument type: EI-MS
m/z	relative intensity
15	53
26	12
27	35
38	25
39	70
42	19
43	324
50	147
51	383
52	49
53	15
58	13
62	34
63	83
64	11
65	21
73	12
74	58
75	57
76	70
77	557
78	40
87	10
89	14
91	28
101	20
102	141
103	962
104	73
115	35
117	22
131	999
132	79
145	463
146	604
147	53
