Mass spectrum: METHYL 3-METHYL-4-PHENYLPENTANOATE; EI-MS
Formula: C13H18O2
Exact mass: 206.13068
Instrument type: EI-MS
m/z	relative intensity
105	283
106	16
132	999
133	14
174	210
175	90
206	192
