Mass spectrum: 1-METHYLBICYCLO(4.4.0)DECANE(TRANS); EI-MS
Name: METHYLDECALIN(TRANS)
Formula: C11H20
Exact mass: 152.1565
Instrument type: EI-MS
m/z	relative intensity
39	93
40	24
41	312
42	42
43	12
51	17
52	20
53	86
54	64
55	320
56	36
65	33
66	50
67	518
68	186
69	154
70	12
77	40
78	14
79	73
80	32
81	601
82	376
83	171
84	14
91	20
93	43
94	47
95	999
96	565
97	54
98	10
99	10
107	13
108	24
109	450
110	310
111	37
123	78
124	26
136	75
137	758
138	80
152	649
153	83
