Mass spectrum: 1-METHYLBICYCLO(4.4.0)DECANE-4,4-D2(TRANS); EI-MS
Formula: C11H20
Exact mass: 152.1565
Instrument type: EI-MS
m/z	relative intensity
41	31
42	22
54	19
55	94
56	79
57	53
58	20
66	18
67	186
68	169
69	214
70	87
71	38
79	18
80	12
81	193
82	404
83	367
84	218
85	97
86	13
87	10
94	24
95	461
96	253
97	804
98	406
99	56
108	12
109	243
110	174
111	299
112	208
113	23
124	18
125	100
126	27
138	107
139	999
140	124
153	19
154	885
155	111
