Mass spectrum: LINALYL BUTYRATE; EI-MS
Name: 1,5-DIMETHYL-1-VINYL-4-HEXENYL BUTYRATE
Formula: C14H24O2
Exact mass: 224.17763
Instrument type: EI-MS
m/z	relative intensity
15	11
17	77
27	128
28	16
29	65
39	99
40	28
41	497
42	42
43	563
44	20
45	11
51	18
52	11
53	95
54	16
55	127
57	11
65	18
66	13
67	100
68	115
69	354
70	23
71	455
72	19
77	28
79	72
80	431
81	151
82	19
83	29
91	58
92	141
93	999
95	33
105	29
106	12
107	83
108	17
109	17
121	331
122	26
136	89
137	34
154	11
