Mass spectrum: 3,8-DIMETHYL-1,2,3,4-TETRAHYDRO-GAMMA-CARBOLINE; EI-MS
Formula: C13H16N2
Exact mass: 200.13135
Instrument type: EI-MS
m/z	relative intensity
42	72
115	28
128	12
142	1
154	10
156	74
157	999
158	11
199	66
200	151
