Mass spectrum: 2-PHENYLOXIRANE; EI-MS
Name: (1,2-EPOXYETHYL)BENZENE
Formula: C8H8O
Exact mass: 120.05751
Instrument type: EI-MS
m/z	relative intensity
27	29
28	14
29	20
31	43
37	18
38	38
39	143
40	23
41	21
43	22
45	33
46	14
50	69
51	136
52	23
62	49
63	152
64	66
65	167
74	18
75	14
77	76
78	17
89	667
90	829
91	999
92	364
93	26
105	32
107	23
119	583
120	479
121	45
