Mass spectrum: 3-METHOXY-4-(TRIMETHYLSILYL)OXYBENZOIC ACID TRIMETHYLSILYL ESTER; EI-MS
Name: TRIMETHYLSILYL 3-METHOXY-4-TRIMETHYLSILOXYBENZOATE
Formula: C14H24O4Si2
Exact mass: 312.12131
Instrument type: EI-MS
m/z	relative intensity
45	129
59	95
73	584
75	10
77	134
89	50
126	269
134	8
141	73
147	134
148	78
149	6
165	78
193	157
223	511
224	8
253	410
254	84
267	612
268	12
269	56
282	398
283	89
297	999
298	219
299	95
312	629
313	15
314	56
