Mass spectrum: N-PHENYLMORPHOLINE; EI-MS
Name: N-PHENYLTETRAHYDRO-1,4-OXAZINE
Formula: C10H13NO
Exact mass: 163.09971
Instrument type: EI-MS
m/z	relative intensity
27	46
28	29
29	11
38	11
39	42
42	29
50	33
51	129
52	24
57	15
63	18
64	11
65	24
76	15
77	285
78	44
79	13
91	53
103	13
104	294
105	999
106	101
117	13
118	13
119	11
132	50
133	11
162	50
163	634
164	77
