Mass spectrum: N,N,N',N'-TETRAMETHYL-1,3-DIAMINOBUTANE; EI-MS
Formula: C8H20N2
Exact mass: 144.16265
Instrument type: EI-MS
m/z	relative intensity
15	61
27	36
28	43
29	5
30	68
39	25
41	36
42	27
43	65
44	140
45	31
55	4
56	128
57	86
58	898
59	4
68	16
70	83
71	104
72	999
73	54
84	518
85	41
86	4
98	72
99	423
100	32
144	58
