Mass spectrum: 3-METHOXY-4-(TRIMETHYLSILYL)OXYCINNAMIC ACID TRIMETHYLSILYL ESTER; EI-MS
Name: TRIMETHYLSILYL 3-METHOXY-4-TRIMETHYLSILOXYCINNAMATE
Formula: C16H26O4Si2
Exact mass: 338.13696
Instrument type: EI-MS
m/z	relative intensity
45	235
47	54
59	104
73	999
74	81
75	231
77	65
89	9
117	69
139	38
145	73
147	9
154	61
175	65
179	100
190	5
191	88
192	54
218	50
219	15
249	416
250	88
251	30
279	12
293	293
294	69
308	374
309	10
310	42
323	378
324	108
325	4
338	432
339	119
340	42
