Mass spectrum: GERANYL ACETATE; EI-MS
Formula: C12H20O2
Exact mass: 196.14633
Instrument type: EI-MS
m/z	relative intensity
15	14
27	56
29	41
39	91
40	23
41	498
42	25
43	540
44	14
51	12
53	87
54	11
55	36
65	18
67	123
68	384
69	999
70	57
77	21
79	30
80	110
81	54
84	23
85	63
86	12
91	21
92	51
93	207
94	44
95	16
107	43
108	11
121	128
122	13
123	19
127	15
136	158
137	22
154	13
