Mass spectrum: 2-TERT-BUTYLMERCAPTO-4-PICOLINE; EI-MS
Formula: C10H15NS
Exact mass: 181.09252
Instrument type: EI-MS
m/z	relative intensity
29	70
39	110
41	110
53	5
57	120
65	70
80	80
81	2
92	60
125	999
126	140
127	1
181	90
182	10
