Mass spectrum: 2-(DIMETHYLAMINO)ETHANOL; EI-MS
Name: DEANOL
Formula: C4H11NO
Exact mass: 89.08406
Instrument type: EI-MS
m/z	relative intensity
15	69
27	27
28	34
29	30
30	114
41	20
42	146
43	46
44	140
45	22
56	20
57	31
58	999
59	54
88	25
89	67
