Mass spectrum: PYRATHIAZINE; EI-MS
Formula: C18H20N2S
Exact mass: 296.13472
Instrument type: EI-MS
m/z	relative intensity
41	24
42	61
43	9
55	3
56	14
82	24
83	11
84	999
85	59
96	9
98	14
99	1
178	4
179	9
180	39
181	0
198	24
199	14
200	7
212	3
213	9
296	71
297	17
298	6
