Mass spectrum: ORTHO METHOXYTOLUENE; EI-MS
Name: ORTHO METHYL ANISOLE
Formula: C8H10O
Exact mass: 122.07316
Instrument type: EI-MS
m/z	relative intensity
15	24
27	124
29	41
38	49
39	280
41	89
43	138
50	104
51	224
52	120
53	106
55	67
57	33
61	15
62	41
63	122
64	41
65	245
66	21
70	49
71	38
77	761
78	177
79	423
89	94
90	91
91	531
92	218
93	66
107	719
108	75
120	165
121	256
122	999
123	87
