Mass spectrum: 1,2-DIMETHOXYETHANE; EI-MS
Formula: C4H10O2
Exact mass: 90.06808
Instrument type: EI-MS
m/z	relative intensity
15	119
27	25
28	36
29	115
31	51
43	37
45	999
46	23
58	56
59	30
60	125
90	108
