Mass spectrum: HEXAMETHYLENEDIAMINE; EI-MS
Formula: C6H16N2
Exact mass: 116.13135
Instrument type: EI-MS
m/z	relative intensity
18	113
27	16
28	120
29	2
30	999
31	48
32	19
39	2
41	56
42	56
43	32
44	6
45	43
55	36
56	111
57	2
59	25
69	16
70	37
72	1
73	11
86	34
87	63
99	20
