Mass spectrum: BENZENE-1,2,4,5-TETRACARBOXYLIC ACID TETRA(TRIMETHYLSILYL) ESTER; EI-MS
Formula: C22H38O8Si4
Exact mass: 542.16437
Instrument type: EI-MS
m/z	relative intensity
54	41
66	48
72	41
73	999
74	102
75	193
77	188
89	7
93	75
131	57
147	899
148	14
149	78
221	43
291	41
527	55
