Mass spectrum: 6,6-DIMETHYL-8ALPHA-(1-OXOETHYL)-1ALPHA,5ALPHA-BICYCLO(3.3.0)OCTAN-2-ONE ETHYLENE ACETAL; EI-MS
Name: 8-ACETYL-2,2-ETHYLENEDIOXY-6,6-DIMETHYL-1ALPHA,5ALPHA-BICYCLO(3.3.0)OCTANE
Formula: C14H22O3
Exact mass: 238.15689
Instrument type: EI-MS
m/z	relative intensity
86	183
87	59
99	999
100	2
126	26
133	31
151	44
181	3
193	92
195	242
196	41
224	3
238	989
239	144
