Mass spectrum: ETHYL BUTYRATE; EI-MS
Formula: C6H12O2
Exact mass: 116.08373
Instrument type: EI-MS
m/z	relative intensity
15	41
18	16
26	64
27	481
28	95
29	680
30	23
31	26
38	16
39	172
40	26
41	326
42	209
43	999
44	41
45	190
55	41
60	222
61	99
69	10
70	94
71	983
72	43
73	195
88	495
89	129
101	65
116	35
