Mass spectrum: PENTYL ALCOHOL; EI-MS
Name: 1-PENTANOL
Formula: C5H12O
Exact mass: 88.08882
Instrument type: EI-MS
m/z	relative intensity
15	27
26	40
27	317
28	105
29	495
30	19
31	566
38	15
39	199
40	33
41	631
42	999
43	258
44	37
45	56
50	10
51	14
53	22
54	15
55	712
56	158
57	227
58	20
60	11
69	57
70	499
71	36
