Mass spectrum: DIPROPYL SUCCINATE; EI-MS
Formula: C10H18O4
Exact mass: 202.12051
Instrument type: EI-MS
m/z	relative intensity
43	244
44	48
45	60
54	152
55	104
56	33
57	14
58	4
73	136
74	60
100	31
101	999
102	50
119	34
143	111
161	24
