Mass spectrum: 1-(2,6-DIMETHYLPHENOXY)-2-AMINOPROPANE; EI-MS
Name: MEXILETINE
Formula: C11H17NO
Exact mass: 179.13101
Instrument type: EI-MS
m/z	relative intensity
52	33
53	13
54	27
56	23
57	47
58	999
59	38
63	13
65	32
77	102
78	27
79	38
91	62
92	14
93	12
103	23
105	38
107	41
121	39
122	39
179	17
