Mass spectrum: CYCLOHEXENE-4-CARBOXYLIC ACID TRIMETHYLSILYL ESTER; EI-MS
Formula: C10H18O2Si
Exact mass: 198.10761
Instrument type: EI-MS
m/z	relative intensity
44	27
45	98
47	45
51	2
53	29
55	21
57	32
58	3
59	43
61	27
66	16
72	2
73	999
74	98
75	373
76	2
77	82
78	17
79	117
80	47
81	58
107	16
108	76
117	7
129	96
131	17
147	14
154	5
158	16
183	205
184	36
198	32
