Mass spectrum: 4-METHYLENE-2-(2-PHENYLETHYL)-TETRAHYDROPYRAN; EI-MS
Formula: C14H18O
Exact mass: 202.13577
Instrument type: EI-MS
m/z	relative intensity
43	185
53	275
65	204
67	637
68	182
69	141
77	136
78	200
79	124
91	922
92	934
93	200
97	999
98	122
104	445
105	214
111	219
117	664
124	285
134	197
157	224
202	839
203	161
