Mass spectrum: 3-(2-AMINOETHYL)-7-METHYLINDOLE; EI-MS
Formula: C11H14N2
Exact mass: 174.1157
Instrument type: EI-MS
m/z	relative intensity
39	22
51	18
63	18
65	2
71.5	10
77	25
89	19
91	4
102	16
103	14
115	99
116	3
117	23
127	10
128	23
129	3
130	50
131	23
141	11
142	7
143	92
144	999
145	537
146	6
156	11
157	12
174	132
175	18
