Mass spectrum: 2-(TERT-BUTYLMERCAPTO)-METHYL-6-PICOLINE; EI-MS
Formula: C11H17NS
Exact mass: 195.10817
Instrument type: EI-MS
m/z	relative intensity
29	100
32	70
39	130
41	19
57	280
65	90
77	70
79	1
92	90
93	170
94	86
106	1
107	130
138	540
139	999
140	1
141	50
180	20
195	40
196	7
