Mass spectrum: ACETALDEHYDE DIBUTYL ACETAL; EI-MS
Name: 1,1-DIBUTOXYETHANE
Formula: C10H22O2
Exact mass: 174.16198
Instrument type: EI-MS
m/z	relative intensity
15	17
18	12
26	14
27	174
29	353
31	91
39	80
41	424
42	37
43	130
44	42
45	811
46	16
53	11
55	65
56	203
57	999
58	48
61	19
72	10
83	26
85	33
100	13
101	813
102	45
103	41
159	138
160	12
