Mass spectrum: 2,6-BIS(TRIMETHYLSILOXY)PYRIMIDINE-4-CARBOXYLIC ACID TRIMETHYLSILYL ESTER; EI-MS
Formula: C14H28N2O4Si3
Exact mass: 372.13569
Instrument type: EI-MS
m/z	relative intensity
43	15
44	31
45	148
57	6
72	31
73	695
74	54
77	2
93	15
100	78
131	46
133	4
147	226
148	31
174	31
186	2
239	15
253	46
254	999
255	28
256	85
269	31
270	46
329	2
357	578
358	164
359	78
360	2
371	31
372	85
373	15
