Mass spectrum: VINYL BUTYRATE; EI-MS
Formula: C6H10O2
Exact mass: 114.06808
Instrument type: EI-MS
m/z	relative intensity
14	16
15	60
26	29
27	270
28	26
29	35
39	80
40	13
41	276
42	62
43	999
44	68
45	11
55	37
57	69
60	10
71	627
72	27
99	10
114	41
