Mass spectrum: DECANE; EI-MS
Formula: C10H22
Exact mass: 142.17215
Instrument type: EI-MS
m/z	relative intensity
27	139
28	27
29	243
39	76
40	14
41	359
42	129
43	999
44	33
53	17
54	12
55	127
56	175
57	962
58	41
69	38
70	135
71	368
72	20
84	93
85	272
86	19
98	51
99	78
112	20
113	53
142	124
143	15
