Mass spectrum: BUTYL ACETATE; EI-MS
Formula: C6H12O2
Exact mass: 116.08373
Instrument type: EI-MS
m/z	relative intensity
28	15
29	33
31	10
41	126
43	999
44	25
55	91
56	746
57	56
58	28
61	232
71	27
73	231
74	10
86	15
87	22
116	4
