Mass spectrum: 1,1,2,2-TETRACHLOROETHANE; EI-MS
Formula: C2H2Cl4
Exact mass: 165.89106
Instrument type: EI-MS
m/z	relative intensity
47	14
48	13
60	42
61	45
62	15
63	14
83	999
84	13
85	652
87	105
95	80
96	55
97	51
98	34
130	12
131	78
132	13
133	72
135	29
137	10
166	53
168	67
170	32
