Mass spectrum: N-2-BUTENYL-N-BUTYL-2-OXANYLOXYACETAMIDE; EI-MS
Formula: C15H27NO3
Exact mass: 269.19909
Instrument type: EI-MS
m/z	relative intensity
41	102
55	452
56	68
57	142
67	95
70	68
84	160
85	988
86	108
112	79
126	236
127	127
128	54
140	265
142	54
154	304
156	102
168	50
169	105
184	105
185	194
186	999
187	199
271	189
