Mass spectrum: ACETALDEHYDE ISOBUTYL PROPYL ACETAL; EI-MS
Formula: C9H20O2
Exact mass: 160.14633
Instrument type: EI-MS
m/z	relative intensity
15	17
26	10
27	196
28	5
29	186
31	48
39	99
40	1
41	335
42	46
43	474
44	2
45	999
46	18
47	14
55	2
56	38
57	647
58	76
61	2
87	616
88	35
89	54
101	18
117	19
145	65
