Mass spectrum: 1H-TETRAZOLE; EI-MS
Formula: CH2N4
Exact mass: 70.02795
Instrument type: EI-MS
m/z	relative intensity
12	30
13	117
14	100
15	35
26	31
27	107
28	216
29	246
40	14
41	145
42	999
43	53
44	5
70	13
71	96
72	3
