Mass spectrum: 2,3,5-TRIMETHYLPYRAZINE; EI-MS
Formula: C7H10N2
Exact mass: 122.0844
Instrument type: EI-MS
m/z	relative intensity
39	151
40	255
41	19
42	999
43	54
53	43
54	256
55	10
66	19
80	61
81	327
82	28
94	10
95	31
107	43
121	48
122	478
123	153
