Mass spectrum: METASYSTOX; EI-MS
Formula: C6H15O4PS2
Exact mass: 246.01494
Instrument type: EI-MS
m/z	relative intensity
230	90
169	60
143	160
142	350
125	170
122	120
112	200
109	500
106	740
105	410
92	180
91	880
89	330
88	999
79	400
77	250
75	350
