Mass spectrum: 1-O-HEXADECYLGLYCEROL 2,3-DITRIMETHYLSILYLETHER; EI-MS
Name: 1-O-HEXADECYL-2,3-DI-O-TRIMETHYLSILYLGLYCEROL
Formula: C25H56O3Si2
Exact mass: 460.3768
Instrument type: EI-MS
m/z	relative intensity
55	8
57	33
69	21
70	10
71	64
73	98
74	8
75	28
82	9
83	27
84	8
85	67
89	9
95	12
96	9
97	33
98	8
99	27
101	29
103	89
104	8
105	20
111	17
113	18
115	23
116	63
117	271
118	31
119	26
125	8
127	13
129	89
130	164
131	146
132	41
133	261
134	33
135	14
141	9
145	18
147	298
148	46
149	45
155	9
175	22
177	30
189	12
204	79
205	999
206	193
207	89
208	11
221	10
280	8
313	46
314	12
355	8
356	15
357	14
370	10
445	20
446	8
