Mass spectrum: CIS-3-HEXENYL ISOBUTYRATE; EI-MS
Formula: C10H18O2
Exact mass: 170.13068
Instrument type: EI-MS
m/z	relative intensity
15	13
26	12
27	236
28	25
29	86
39	199
40	25
41	437
42	65
43	999
44	33
51	14
53	52
54	73
55	187
56	15
66	12
67	831
68	46
69	21
70	12
71	536
72	21
79	12
81	49
82	865
83	64
89	14
