Mass spectrum: 2-(4-METHOXYPHENYL)ETHYL 2,3,4,6-TETRA-O-ACETYL-BETA-(D)-GLUCOPYRANOSIDE; EI-MS
Name: METHYLSALIDROSIDE TETRAACETATE
Formula: C23H30O11
Exact mass: 482.17881
Instrument type: EI-MS
m/z	relative intensity
41	5
43	213
44	7
55	1
57	8
61	5
69	17
70	1
71	7
73	5
77	8
79	1
80	5
81	33
82	5
83	1
85	7
91	10
92	5
98	2
99	13
102	13
103	30
104	1
105	47
106	7
108	37
109	11
110	13
111	5
112	15
115	2
119	5
120	12
121	120
122	1
127	47
128	7
134	955
135	999
136	95
137	8
139	15
140	1
141	13
144	5
145	18
149	1
152	3
157	12
163	5
169	12
170	13
187	7
211	7
229	1
271	7
331	38
332	7
482	8
483	23
484	5
97	18
