Mass spectrum: METHYL FORMATE; EI-MS
Name: FORMIC ACID METHYL ESTER
Formula: C2H4O2
Exact mass: 60.02113
Instrument type: EI-MS
m/z	relative intensity
28	27
29	655
30	67
31	999
32	356
44	19
45	11
60	371
61	15
