Mass spectrum: 2-HYDROXY-6-METHOXYACETOPHENONE; EI-MS
Formula: C9H10O3
Exact mass: 166.06299
Instrument type: EI-MS
m/z	relative intensity
43	28
65	31
77	17
81	11
93	36
95	12
105	15
108	72
121	22
123	12
136	112
137	11
147	26
148	100
149	13
151	999
152	89
166	429
167	45
