Mass spectrum: 2-BUTANONE; EI-MS
Formula: C4H8O
Exact mass: 72.05751
Instrument type: EI-MS
m/z	relative intensity
43	999
44	33
57	66
72	197
