Mass spectrum: 14-METHYLHEXADECANOIC ACID TRIMETHYLSILYLESTER; EI-MS
Formula: C20H42O2Si
Exact mass: 342.29541
Instrument type: EI-MS
m/z	relative intensity
43	184
55	143
57	82
69	8
73	999
75	455
117	495
118	7
129	203
131	88
132	260
133	5
145	177
201	52
327	178
328	14
329	42
330	60
342	43
