Mass spectrum: N,N-DIMETHYLACETAMIDE; EI-MS
Formula: C4H9NO
Exact mass: 87.06841
Instrument type: EI-MS
m/z	relative intensity
14	29
15	210
18	39
27	21
28	81
29	16
30	98
31	18
40	25
41	41
42	294
43	463
44	999
45	221
46	11
56	20
58	17
72	194
87	705
88	160
