Mass spectrum: 4-CHLORO-META-CRESOL; EI-MS
Formula: C7H7ClO
Exact mass: 142.01854
Instrument type: EI-MS
m/z	relative intensity
50	85
51	174
52	36
53	8
61	29
62	49
63	73
71	2
73	39
74	31
75	41
77	44
78	121
79	118
89	26
105	6
107	999
108	83
113	34
141	8
142	764
143	90
144	248
145	22
