Mass spectrum: 1,1-DIETHYLHYDRAZINE; EI-MS
Formula: C4H12N2
Exact mass: 88.10005
Instrument type: EI-MS
m/z	relative intensity
26	25
27	125
28	175
29	16
30	125
31	81
39	5
40	1
41	34
42	225
43	91
44	18
45	463
46	10
54	6
55	1
56	100
57	16
58	26
59	8
70	15
71	7
73	999
74	5
87	49
88	488
89	48
