Mass spectrum: 3-(3-AMINOPROPYL)-5-METHOXY-2-METHYLINDOLE; EI-MS
Formula: C13H18N2O
Exact mass: 218.14191
Instrument type: EI-MS
m/z	relative intensity
27	46
29	30
30	85
39	3
40	12
41	47
42	38
43	6
45	56
51	16
52	13
53	1
54	10
55	31
56	26
57	3
63	16
64	10
65	17
67	2
69	14
70	10
71	13
76	1
77	48
78	21
79	15
80	1
81	12
89	22
90	12
91	4
102	17
103	47
104	18
105	1
115	48
116	28
117	57
118	4
127	17
128	32
129	28
130	12
131	184
132	56
133	14
141	1
142	28
143	63
144	135
145	6
146	72
147	30
154	32
155	3
156	33
157	43
158	164
159	26
160	224
161	119
162	108
163	2
168	15
169	21
170	224
171	5
172	57
173	156
174	999
175	35
176	40
182	10
183	13
184	2
185	20
186	158
187	76
188	17
189	41
197	13
198	10
200	6
201	311
202	40
203	10
214	1
216	18
218	449
219	70
