Mass spectrum: PROPIONIC ANHYDRIDE; EI-MS
Formula: C6H10O3
Exact mass: 130.06299
Instrument type: EI-MS
m/z	relative intensity
26	77
27	213
28	237
29	527
30	32
42	11
45	59
54	13
55	41
56	124
57	999
58	40
73	82
74	132
79	11
