Mass spectrum: 4-(N-PENTAFLUOROPROPIONYL)AMINO1,2,4-TRIAZOLE; EI-MS
Formula: C5H3F5N4O
Exact mass: 230.0227
Instrument type: EI-MS
m/z	relative intensity
43	105
44	46
50	180
55	26
56	100
57	82
69	716
83	7
84	58
100	429
111	294
119	999
230	333
231	84
