Mass spectrum: ACETIC ACID TERT-BUTYL ESTER; EI-MS
Name: TERT-BUTYL ACETATE
Formula: C6H12O2
Exact mass: 116.08373
Instrument type: EI-MS
m/z	relative intensity
15	56
27	46
28	29
29	168
31	32
39	71
40	14
41	355
42	29
43	999
44	22
45	14
55	33
56	394
57	500
58	23
59	359
60	20
61	22
101	151
102	10
