Mass spectrum: DIMETHYL 4-METHYL-3-HEPTENEDIOATE; EI-MS
Formula: C10H16O4
Exact mass: 200.10486
Instrument type: EI-MS
m/z	relative intensity
26	40
27	340
28	290
29	150
30	20
31	50
32	60
33	20
38	20
39	320
40	90
41	420
42	80
43	360
44	20
45	90
50	30
51	70
52	50
53	290
54	60
55	220
56	20
57	90
58	20
59	400
60	20
63	30
65	70
66	50
67	360
68	110
69	50
70	10
71	30
72	10
73	10
74	50
75	10
77	50
78	30
79	170
80	180
81	999
93	20
94	20
95	130
96	20
97	40
98	320
99	220
100	20
107	20
108	250
109	290
110	40
111	30
112	30
113	10
115	30
123	10
125	70
126	20
127	30
128	10
130	10
135	10
136	180
137	160
138	30
139	20
140	170
141	160
142	20
143	10
168	230
169	50
170	10
200	20
201	10
