Mass spectrum: TOLUENE-2,4-DIISOCYANATE; EI-MS
Formula: C9H6N2O2
Exact mass: 174.04293
Instrument type: EI-MS
m/z	relative intensity
26	13
27	37
37	15
38	32
39	51
40	18
41	17
44	84
45.5	12
50	47
51	70
52	47
53	15
58.5	11
59	38
62	15
63	42
64	52
65	25
66	12
72.5	10
73	14
75	21
76	56
77	55
78	21
87	32
90	47
91	97
102	24
103	30
104	18
106	12
117	37
118	73
119	65
120	18
132	135
133	12
145	378
146	290
147	30
173	264
174	999
175	104
