Mass spectrum: 5-ALPHA-CHOLESTANE; EI-MS
Formula: C27H48
Exact mass: 372.3756
Instrument type: EI-MS
m/z	relative intensity
53	53
54	15
55	323
56	48
57	197
58	22
59	6
65	3
66	19
67	252
68	107
69	24
70	32
71	71
72	19
75	16
76	28
77	69
78	17
79	16
80	53
81	391
82	94
83	17
84	19
85	20
87	5
88	2
91	99
92	27
93	209
94	9
95	400
96	10
97	110
98	2
99	12
101	11
105	84
106	5
107	156
108	189
109	398
110	2
111	49
112	19
113	14
115	1
116	15
117	20
118	14
119	4
120	35
121	204
122	167
123	20
124	31
125	12
128	14
129	2
131	13
134	25
135	156
136	6
137	88
138	10
143	2
145	1
146	12
147	59
148	126
149	47
150	190
151	111
152	17
153	1
155	14
159	18
161	45
162	8
163	75
164	22
165	4
175	10
176	8
178	1
179	6
189	4
190	18
202	10
203	94
204	2
215	12
216	13
217	999
218	57
219	152
220	30
221	6
223	0
231	19
232	127
233	41
247	2
251	3
257	37
258	12
259	2
262	96
263	15
266	1
295	0
315	11
354	16
357	272
358	9
370	12
372	338
373	86
374	12
