Mass spectrum: 3-METHYL-5-PHENYLCYCLOHEX-2-ENONE; EI-MS
Formula: C13H14O
Exact mass: 186.10447
Instrument type: EI-MS
m/z	relative intensity
44	18
54	35
82	999
83	58
104	110
105	20
142	37
143	21
144	31
184	19
186	425
187	59
