Mass spectrum: ALLYL METHYL SULFIDE; EI-MS
Formula: C4H8S
Exact mass: 88.03467
Instrument type: EI-MS
m/z	relative intensity
14	12
15	47
26	28
27	133
35	49
37	43
38	101
39	645
40	49
41	570
42	39
44	17
45	806
46	294
47	310
48	57
49	25
53	28
54	17
55	17
57	13
58	22
59	37
60	25
61	213
69	39
71	59
72	53
73	799
74	30
75	33
85	16
87	40
88	999
89	45
90	48
