Mass spectrum: TERT-BUTYLCHLORODIMETHYLSILANE; EI-MS
Formula: C6H15ClSi
Exact mass: 150.06315
Instrument type: EI-MS
m/z	relative intensity
42	18
43	176
45	100
55	18
56	976
57	536
58	36
59	118
61	16
63	71
65	93
67	27
70	11
73	124
74	75
78	14
79	30
92	12
93	999
94	83
95	357
96	23
99	12
135	14
150	94
152	34
