Mass spectrum: BENZYLTRIMETHYLSILANE; EI-MS
Formula: C10H16Si
Exact mass: 164.10213
Instrument type: EI-MS
m/z	relative intensity
43	39
45	52
58	14
59	41
65	22
72	11
73	999
74	103
75	40
77	12
79	16
91	41
105	21
107	22
108	14
119	15
121	137
122	18
131	10
133	12
146	62
147	11
149	195
150	30
164	286
165	48
166	14
