Mass spectrum: 5-METHYL-N-UNDECYL-2-PYRROLIDONE; EI-MS
Formula: C16H31NO
Exact mass: 253.24056
Instrument type: EI-MS
m/z	relative intensity
26	3
27	33
28	41
29	10
30	34
31	2
32	3
39	3
40	5
41	190
42	51
43	14
44	35
51	3
53	13
54	2
55	210
56	78
57	74
58	1
59	2
60	2
65	2
66	0
67	34
68	19
69	55
70	3
71	23
72	7
79	3
80	0
81	6
82	28
83	110
84	18
85	24
86	6
93	2
94	1
95	3
96	6
97	12
98	15
99	14
100	50
101	4
110	1
111	9
112	999
113	660
114	5
115	3
119	8
124	6
126	14
127	33
128	5
129	1
131	1
138	11
139	2
140	184
141	4
142	3
152	5
153	1
154	7
155	16
156	2
166	7
167	0
168	40
169	17
170	3
180	0
181	5
182	37
183	12
184	0
193	1
194	3
195	1
196	4
197	12
198	5
199	1
209	0
210	10
211	1
212	1
224	3
225	8
226	2
236	18
237	0
238	198
239	31
240	3
251	0
252	21
253	280
254	60
255	1
256	1
