Mass spectrum: SUBERIC ACID; EI-MS
Formula: C8H14O4
Exact mass: 174.08921
Instrument type: EI-MS
m/z	relative intensity
41	580
42	246
55	999
56	30
68	561
69	463
97	252
138	294
