Mass spectrum: DIPHENYLMETHANOL; EI-MS
Name: DIPHENYL CARBINOL
Formula: C13H12O
Exact mass: 184.08882
Instrument type: EI-MS
m/z	relative intensity
14	26
27	25
32	44
39	46
50	47
51	171
52	36
53	12
63	20
75	12
76	19
77	473
78	345
79	267
105	999
106	92
107	113
152	25
155	15
165	87
166	26
167	31
182	13
183	146
184	309
185	50
