Mass spectrum: METHYL TIGLATE; EI-MS
Name: METHYL 2-METHYL-2-BUTENOATE
Formula: C6H10O2
Exact mass: 114.06808
Instrument type: EI-MS
m/z	relative intensity
15	129
26	32
27	303
29	239
30	13
31	12
38	24
39	246
41	38
42	10
43	62
45	17
50	49
51	73
52	29
53	170
54	145
55	999
56	55
59	120
69	15
71	20
81	15
82	106
83	502
84	25
99	128
114	409
115	25
