Mass spectrum: 2-NAPHTHOIC ACID TRIMETHYLSILYL ESTER; EI-MS
Formula: C14H16O2Si
Exact mass: 244.09196
Instrument type: EI-MS
m/z	relative intensity
44	84
45	125
47	43
51	5
63	69
64	53
73	77
74	5
75	112
76	59
77	166
101	8
115	123
126	188
127	999
128	10
155	920
156	121
185	889
186	14
187	47
229	765
230	150
231	4
244	223
245	43
