Mass spectrum: ETHYL 1-(3-(3,5-DINITROBENZAMIDO)BUTYL)-2-METHYLINDOLE-3-CARBOXYLATE; EI-MS
Formula: C23H24N4O7
Exact mass: 468.1645
Instrument type: EI-MS
m/z	relative intensity
55	83
75	140
77	143
103	7
105	374
115	66
122	152
144	43
157	83
158	178
171	983
172	11
184	159
188	226
195	209
198	4
203	71
216	101
217	88
220	4
230	93
266	72
405	64
423	10
468	999
