Mass spectrum: VALERONITRILE; EI-MS
Formula: C5H9N
Exact mass: 83.0735
Instrument type: EI-MS
m/z	relative intensity
14	32
15	100
25	15
26	13
27	610
28	214
29	213
37	3
38	59
39	259
40	81
41	999
42	61
43	92
44	30
50	2
51	33
52	50
53	25
54	50
55	210
56	23
57	29
64	2
66	11
68	20
82	30
