Mass spectrum: BENZYL ETHER; EI-MS
Formula: C14H14O
Exact mass: 198.10447
Instrument type: EI-MS
m/z	relative intensity
65	26
77	51
78	11
79	17
80	11
90	10
91	473
92	999
93	76
105	13
107	155
108	1
120	12
