Mass spectrum: N-(2-PHENYLBUTYRYL)PIPERIDIN-2-ONE; EI-MS
Formula: C15H19NO2
Exact mass: 245.14158
Instrument type: EI-MS
m/z	relative intensity
91	540
92	60
97	10
98	0
99	20
100	60
103	50
104	0
105	10
117	140
118	190
119	5
120	60
126	20
127	10
131	0
146	999
147	130
148	10
149	0
164	10
182	40
245	70
246	0
247	5
