Mass spectrum: 1-METHOXY-2-BUTANOL; EI-MS
Formula: C5H12O2
Exact mass: 104.08373
Instrument type: EI-MS
m/z	relative intensity
15	111
26	12
27	87
28	24
29	80
31	548
33	27
39	33
41	210
42	15
43	139
44	23
45	429
46	32
47	230
55	32
57	53
58	364
59	999
60	35
71	20
73	67
75	206
104	10
