Mass spectrum: 2-TETRADECANONE; EI-MS
Formula: C14H28O
Exact mass: 212.21402
Instrument type: EI-MS
m/z	relative intensity
15	15
27	79
29	152
39	55
41	275
42	62
43	832
44	17
53	16
54	16
55	148
56	46
57	144
58	999
59	428
60	12
67	21
68	16
69	49
70	22
71	309
72	18
81	17
82	42
83	21
84	13
85	73
95	18
96	26
97	21
110	10
111	11
113	10
127	10
152	15
154	21
212	19
