Mass spectrum: PARA-ETHYLPHENOL; EI-MS
Formula: C8H10O
Exact mass: 122.07316
Instrument type: EI-MS
m/z	relative intensity
26	29
27	90
28	21
29	3
37	24
38	28
39	125
40	3
41	20
43	15
50	41
51	8
52	30
53	59
55	19
61	2
62	20
63	42
64	13
65	4
66	15
74	12
75	11
77	17
78	42
79	20
89	13
91	4
93	19
94	18
103	20
107	999
108	89
121	48
122	280
123	22
