Mass spectrum: CAPROLACTAM; EI-MS
Formula: C6H11NO
Exact mass: 113.08406
Instrument type: EI-MS
m/z	relative intensity
27	147
28	265
29	82
30	81
39	132
40	35
41	324
42	65
43	176
44	33
53	24
54	2
55	999
56	662
57	88
67	9
68	35
69	24
70	21
71	2
83	53
84	603
85	565
86	3
112	868
113	32
114	88
