Mass spectrum: BENZENE; EI-MS
Formula: C6H6
Exact mass: 78.04695
Instrument type: EI-MS
m/z	relative intensity
49	13
50	106
51	139
52	153
63	23
73	13
74	42
75	17
76	41
77	177
78	999
79	72
