Mass spectrum: (4AS,5S,8AS)-(-)-5BETA,8ABETA-DIMETHYL-5AALPHA-(4-METHYL-3-PENTENYL)-3,4,4A,5,6,7,8,8A-OCTAHYDRONAPHTHALEN-1(2H)-ONE; EI-MS
Formula: C20H34O2
Exact mass: 306.25588
Instrument type: EI-MS
m/z	relative intensity
41	123
53	64
55	281
67	153
68	64
69	357
79	73
81	236
82	106
83	98
86	252
87	100
93	90
95	209
96	103
99	999
100	144
105	57
107	98
108	6
109	276
113	85
114	56
121	7
122	77
123	109
124	53
125	100
128	84
135	87
136	118
137	71
138	195
139	51
149	70
151	72
161	80
162	236
163	102
175	84
176	76
191	86
192	64
193	11
223	121
224	59
262	78
275	184
306	296
307	69
