Mass spectrum: 3-ETHOXY-6-(1-HYDROXY-5-METHYL-4-HEXENYL)-2-CYCLOHEXEN-1-ONE; EI-MS
Formula: C15H24O3
Exact mass: 252.17254
Instrument type: EI-MS
m/z	relative intensity
17	89
18	963
28	618
29	8
32	88
39	19
40	50
41	39
42	72
43	339
44	23
45	2
53	40
55	263
56	535
57	8
58	51
66	18
67	115
68	44
69	500
70	76
71	54
73	7
75	56
77	12
79	151
80	2
81	39
82	70
83	38
84	58
85	65
91	19
93	34
94	36
95	191
96	104
97	146
99	3
100	13
107	16
109	75
110	11
111	108
112	651
113	104
117	2
121	15
122	18
123	66
124	5
125	21
135	14
137	46
138	28
139	152
140	999
141	217
142	3
143	15
149	37
151	19
152	6
153	83
154	13
163	22
164	1
165	42
166	554
167	95
168	1
169	562
170	75
171	11
177	4
178	21
179	33
181	13
182	6
183	24
184	17
185	31
191	7
195	24
197	12
205	10
206	1
211	17
212	49
213	12
219	2
234	231
235	55
239	20
241	23
242	42
243	10
252	174
253	3
254	10
