Mass spectrum: 4,5-DIMETHYL-2-PROPYLOXAZOLE; EI-MS
Formula: C8H13NO
Exact mass: 139.09971
Instrument type: EI-MS
m/z	relative intensity
27	19
29	38
39	19
41	124
42	543
43	627
53	10
54	85
55	537
56	10
67	11
68	405
69	452
70	470
71	78
82	64
96	225
97	13
109	10
110	884
111	999
112	233
113	13
124	547
125	68
138	305
139	681
140	226
