Mass spectrum: FENCHYL ALCOHOL (2-D1); EI-MS
Name: 1,3,3-TRIMETHYLBICYCLO(2.2.1)HEPTAN-2-OL (2-D1)
Formula: C10H18O
Exact mass: 154.13577
Instrument type: EI-MS
m/z	relative intensity
43	58
55	20
56	15
57	11
58	11
59	10
67	28
69	72
70	20
71	18
72	135
73	147
74	21
80	999
81	840
82	188
83	98
84	149
85	68
86	23
93	47
94	101
95	39
96	41
97	32
98	25
99	25
100	13
107	84
108	25
109	19
110	17
111	21
112	136
113	19
122	87
123	62
124	10
125	27
137	62
140	45
155	62
