Mass spectrum: 2,4-PENTANEDIONE; EI-MS
Formula: C5H8O2
Exact mass: 100.05243
Instrument type: EI-MS
m/z	relative intensity
14	13
15	92
26	22
27	80
29	57
31	35
37	10
38	17
39	60
41	54
42	82
43	999
44	20
55	16
58	35
72	46
85	345
86	14
100	226
101	15
