Mass spectrum: CHLOROMETHYLDIPHENYLSILANE; EI-MS
Formula: C13H13ClSi
Exact mass: 232.0475
Instrument type: EI-MS
m/z	relative intensity
51	13
63	53
65	19
77	14
91	55
98	40
103	11
105	17
139	13
152	22
153	13
154	38
155	98
156	13
157	29
165	14
180	22
181	77
182	15
195	12
199	26
215	25
217	999
218	188
219	372
220	67
221	16
232	256
233	52
234	98
235	18
