Mass spectrum: 2,3-DIMETHYL-1-PHENYL-3-BUTEN-1-ONE; EI-MS
Formula: C12H14O
Exact mass: 174.10447
Instrument type: EI-MS
m/z	relative intensity
41	22
77	120
105	999
106	75
159	13
174	31
