Mass spectrum: 3-CARBOMETHOXYPROPIONYL CHLORIDE; EI-MS
Formula: C5H7ClO3
Exact mass: 150.00837
Instrument type: EI-MS
m/z	relative intensity
14	66
15	256
25	31
26	207
27	387
28	412
29	263
30	43
31	76
35	49
36	52
37	29
38	25
41	38
42	111
43	40
45	64
50	33
55	690
56	182
59	311
63	85
65	32
87	113
101	43
114	161
115	999
116	57
119	138
121	42
