Mass spectrum: 3,3,3-TRICHLORO-2-HYDROXY-PROPIONIC ACID-HYDRAZIDE; EI-MS
Formula: C3H5Cl3N2O2
Exact mass: 205.94166
Instrument type: EI-MS
m/z	relative intensity
59	720
61	360
71	260
76	24
82	120
83	340
85	210
89	999
111	230
112	650
114	430
116	1
147	60
149	60
151	30
171	0
206	80
208	80
210	30
