Mass spectrum: NONANAL; EI-MS
Formula: C9H18O
Exact mass: 142.13577
Instrument type: EI-MS
m/z	relative intensity
15	24
26	24
27	508
28	34
29	595
30	18
31	22
39	335
40	40
41	999
42	287
43	737
44	616
45	170
51	17
53	57
54	138
55	525
56	599
57	901
58	56
66	23
67	188
68	266
69	305
70	335
71	146
72	56
79	14
81	209
82	253
83	67
85	27
86	18
95	185
96	178
97	16
98	320
99	50
109	14
114	59
124	31
