Mass spectrum: ISOPROPYL ALCOHOL(1,1,1,2,3,3,3-D7); EI-MS
Formula: C3H8O
Exact mass: 60.05751
Instrument type: EI-MS
m/z	relative intensity
18	25
21	37
22	5
28	19
29	12
30	117
33	24
42	21
45	22
46	87
47	15
48	17
49	999
50	77
51	9
65	22
