Mass spectrum: 5,7-DIMETHYLPYRIMIDO(1,6-A)INDOLE; EI-MS
Formula: C13H12N2
Exact mass: 196.10005
Instrument type: EI-MS
m/z	relative intensity
51	35
77	35
91	12
105	1
115	32
127	51
128	12
167	1
168	25
195	999
196	875
