Mass spectrum: TESTOSTERONE; EI-MS
Formula: C19H28O2
Exact mass: 288.20893
Instrument type: EI-MS
m/z	relative intensity
17	40
18	220
27	40
28	20
29	80
39	60
40	20
41	2
42	220
43	20
44	20
51	2
53	90
54	20
55	230
56	2
57	90
65	50
66	20
67	20
68	40
69	100
70	20
71	4
77	140
78	40
79	250
80	5
81	200
82	40
83	60
84	2
85	20
86	20
87	30
91	25
92	50
93	220
94	100
95	19
96	60
97	100
103	20
104	2
105	230
106	80
107	210
108	10
109	250
110	90
111	60
115	3
117	60
118	30
119	190
120	7
121	180
122	130
123	220
124	999
125	110
129	40
130	20
131	11
132	50
133	130
134	110
135	10
136	70
137	110
138	30
141	2
143	40
144	30
145	80
146	11
147	320
148	130
149	140
150	5
151	60
152	20
157	30
158	2
159	70
160	40
161	60
162	4
163	30
164	80
165	110
166	2
171	30
172	20
173	40
174	5
175	40
176	30
177	20
185	7
186	20
187	60
188	20
189	3
190	20
199	30
200	20
201	3
202	40
203	200
204	60
211	3
213	60
214	20
215	20
216	2
217	70
218	40
227	20
228	12
229	60
231	50
232	50
244	20
245	30
246	330
247	60
255	3
260	20
270	50
273	50
288	37
289	100
290	20
