Mass spectrum: (E)-2-METHYLCROTONIC ACID METHYL ESTER; EI-MS
Name: TIGLIC ACID METHYL ESTER
Formula: C6H10O2
Exact mass: 114.06808
Instrument type: EI-MS
m/z	relative intensity
38	44
50	19
51	44
53	12
54	128
55	999
56	44
71	3
82	166
83	647
84	38
99	17
114	602
115	38
