Mass spectrum: 1,4-CYCLOHEXANEDIONE; EI-MS
Formula: C6H8O2
Exact mass: 112.05243
Instrument type: EI-MS
m/z	relative intensity
14	28
15	22
26	124
27	315
28	999
29	189
39	59
41	45
42	205
43	36
53	30
54	30
55	329
56	562
57	193
69	20
70	35
83	48
84	24
112	649
113	46
