Mass spectrum: DIMETHYL 1-(3-(3,5-DINITROBENZAMIDO)PROPYL)INDOLE-2,3-DICARBOXYLATE; EI-MS
Formula: C22H20N4O9
Exact mass: 484.12303
Instrument type: EI-MS
m/z	relative intensity
45	306
75	128
77	123
105	30
122	171
143	120
149	80
188	31
195	175
198	98
201	65
202	9
214	97
215	55
216	117
228	999
229	134
233	57
241	92
246	13
247	275
252	46
260	28
393	7
453	55
484	708
