Mass spectrum: N-METHYL-2-PYRROLIDONE; EI-MS
Formula: C5H9NO
Exact mass: 99.06841
Instrument type: EI-MS
m/z	relative intensity
40	385
42	517
43	173
44	654
45	29
52	11
54	23
55	34
56	73
57	23
58	54
62	19
68	38
69	43
70	79
71	112
97	16
98	693
99	999
100	61
