Mass spectrum: DICHLOROMETHYLTRIMETHYLSILANE; EI-MS
Formula: C4H10Cl2Si
Exact mass: 155.99288
Instrument type: EI-MS
m/z	relative intensity
42	14
43	47
44	13
45	124
53	11
63	56
65	42
73	999
74	87
75	39
78	14
79	21
93	119
94	10
95	45
113	311
114	22
115	213
116	13
117	40
156	5
