Mass spectrum: 2-ETHOXYBENZOIC ACID METHYL ESTER; EI-MS
Formula: C10H12O3
Exact mass: 180.07864
Instrument type: EI-MS
m/z	relative intensity
50	14
51	34
52	20
53	3
62	17
63	57
64	71
65	13
76	20
77	57
91	25
92	32
93	100
103	14
104	14
105	5
107	11
120	999
121	280
122	3
133	174
134	17
135	25
137	0
147	143
148	28
149	97
150	2
151	11
152	34
157	11
165	16
166	22
180	134
181	17
