Mass spectrum: PHENAZOCINE; EI-MS
Formula: C22H27NO
Exact mass: 321.20926
Instrument type: EI-MS
m/z	relative intensity
26	10
27	28
28	41
29	2
30	34
31	1
32	8
38	0
39	21
40	10
41	40
42	9
43	30
44	119
45	10
50	1
51	17
52	10
53	17
54	1
55	34
56	62
57	40
58	24
59	14
62	2
63	16
64	0
65	37
66	9
67	10
68	2
69	16
70	29
71	9
72	0
75	2
76	4
77	60
78	2
79	50
80	10
81	10
82	1
83	10
84	15
85	4
88	0
89	12
90	7
91	65
92	2
93	10
94	10
95	5
96	1
97	2
101	4
102	10
103	4
104	18
105	107
106	18
107	3
108	9
109	4
110	10
114	0
115	46
116	22
117	22
118	0
119	15
120	10
121	11
122	0
127	28
128	34
129	26
130	2
131	40
132	20
133	17
134	1
135	2
139	7
140	4
141	0
142	10
143	10
144	34
145	6
146	26
147	23
148	12
149	0
150	2
151	4
152	10
153	0
154	7
155	19
156	10
157	5
158	67
159	69
160	19
161	0
162	20
166	2
167	3
168	0
169	7
170	10
171	18
172	2
173	110
174	27
175	10
176	0
181	2
182	4
183	7
184	2
186	13
187	40
188	12
189	0
197	3
198	9
199	23
200	1
201	11
202	4
215	13
216	1
217	10
218	3
228	33
230	999
231	176
232	21
233	4
318	0
319	10
320	19
321	10
322	1
323	2
185	14
