Mass spectrum: DIBUTYL FUMARATE; EI-MS
Formula: C12H20O4
Exact mass: 228.13616
Instrument type: EI-MS
m/z	relative intensity
26	35
27	144
31	100
40	22
41	367
42	74
43	154
44	51
45	30
53	68
54	138
55	198
56	969
57	340
58	22
71	56
72	47
73	17
80	15
81	81
82	112
97	27
98	30
99	365
100	147
101	19
109	26
117	988
118	46
126	21
127	88
157	21
173	344
174	32
