Mass spectrum: 3-DODECANONE; EI-MS
Formula: C12H24O
Exact mass: 184.18272
Instrument type: EI-MS
m/z	relative intensity
26	11
27	217
29	630
30	12
39	98
41	385
42	95
43	564
44	13
53	28
54	19
55	192
56	50
57	890
58	25
67	36
68	16
69	53
70	20
71	280
72	999
73	242
81	47
82	11
83	19
84	11
85	297
86	18
95	48
96	14
99	21
110	21
155	255
156	23
184	18
