Mass spectrum: 1,2-DIAMINOPROPANE; EI-MS
Formula: C3H10N2
Exact mass: 74.0844
Instrument type: EI-MS
m/z	relative intensity
15	23
18	161
27	21
28	79
29	16
30	231
41	22
42	62
43	29
44	999
45	28
56	28
57	12
58	11
74	10
