Mass spectrum: 3,5-DICHLOROBENZOIC ACID METHYL ESTER; EI-MS
Formula: C8H6Cl2O2
Exact mass: 203.97448
Instrument type: EI-MS
m/z	relative intensity
42	27
44	61
50	52
73	3
74	132
75	152
84	31
85	3
109	157
110	59
111	59
145	32
146	29
147	200
148	11
149	3
173	999
174	72
175	599
176	5
177	88
186	13
203	11
204	31
205	34
206	200
207	11
208	31
