Mass spectrum: N-ACETYLGLUTAMIC ACID DIETHYL ESTER; EI-MS
Formula: C11H19NO5
Exact mass: 245.12632
Instrument type: EI-MS
m/z	relative intensity
29	11
31	26
41	20
43	8
45	16
56	66
57	10
84	999
85	79
98	15
99	12
100	1
102	50
111	14
112	207
113	1
116	11
126	316
127	19
128	1
130	620
131	32
145	10
153	2
154	17
158	217
159	14
172	73
173	50
199	65
200	76
202	4
245	13
