Mass spectrum: METHYLPHENYLSILANE; EI-MS
Formula: C7H10Si
Exact mass: 122.05518
Instrument type: EI-MS
m/z	relative intensity
44	184
45	23
50	24
51	51
52	16
53	173
54	36
61	17
65	13
66	32
67	43
68	11
69	29
77	40
78	47
79	95
80	22
81	75
91	30
93	38
95	51
96	19
103	32
104	12
105	443
106	156
107	670
108	83
109	28
119	38
120	330
121	999
122	953
123	147
124	36
