Mass spectrum: (5S,8AS)-(-)-5ALPHA-ALLYL-5BETA,8ABETA-DIMETHYL-3,4,4A,5,6,7,8,8A-OCTAHYDRONAPHTHALEN-1(2H)-ONE ETHYLENE ACETAL; EI-MS
Formula: C17H28O2
Exact mass: 264.20893
Instrument type: EI-MS
m/z	relative intensity
31	738
32	749
40	153
41	191
42	61
43	497
45	351
55	164
58	182
59	474
67	74
69	82
73	76
74	331
81	64
86	255
87	230
99	999
100	279
104	54
105	55
125	204
161	179
223	335
264	173
