Mass spectrum: N-HEXYL BENZOATE; EI-MS
Formula: C13H18O2
Exact mass: 206.13068
Instrument type: EI-MS
m/z	relative intensity
51	80
55	310
56	500
57	110
69	170
77	450
83	60
84	310
85	320
105	999
106	80
122	160
123	950
124	70
186	30
206	20
