Mass spectrum: (Z)-7-HEXADECENYL ACETATE; EI-MS
Formula: C18H34O2
Exact mass: 282.25588
Instrument type: EI-MS
m/z	relative intensity
43	24
44	160
45	12
46	2
54	192
55	175
56	59
57	9
61	44
66	78
67	516
68	37
69	213
70	51
71	39
79	1
80	34
81	581
82	999
83	29
84	33
85	18
94	32
95	48
96	888
97	242
98	29
109	38
110	348
111	95
112	15
122	2
123	227
124	265
125	43
136	2
137	139
138	163
139	25
140	2
151	37
152	63
153	13
165	5
166	85
167	13
179	20
180	3
193	14
194	59
195	12
221	3
222	328
223	61
