Mass spectrum: N-ACETYL-GLYCYL-ALANYL-ALANINE METHYL ESTER; EI-MS
Formula: C11H19N3O5
Exact mass: 273.13247
Instrument type: EI-MS
m/z	relative intensity
15	54
27	16
28	77
29	1
30	223
31	16
32	20
41	1
42	43
43	110
44	999
45	4
55	14
56	17
57	37
59	1
60	12
70	39
71	10
72	9
73	46
85	28
99	12
100	9
101	10
102	17
104	16
113	1
141	45
143	90
144	130
145	1
171	44
201	14
214	28
