Mass spectrum: GERANYL ACETATE; EI-MS
Name: 3,7-DIMETHYL-2,6-OCTADIENYL ACETATE
Formula: C12H20O2
Exact mass: 196.14633
Instrument type: EI-MS
m/z	relative intensity
27	77
28	22
29	64
39	11
40	33
41	668
42	45
43	74
44	28
45	27
53	106
55	6
57	21
65	22
67	155
68	62
69	999
70	102
71	19
77	3
79	45
80	139
81	68
84	4
85	92
91	32
92	63
93	30
94	52
95	19
107	49
121	15
123	30
127	23
135	174
136	3
153	18
