Mass spectrum: (ORTHO-METHOXYCARBONYL)PHENYLACETIC ACID METHYL ESTER; EI-MS
Formula: C11H12O4
Exact mass: 208.07356
Instrument type: EI-MS
m/z	relative intensity
38	26
39	78
50	26
51	10
52	26
53	35
62	61
63	14
64	61
65	105
75	17
76	4
77	105
78	70
79	26
88	2
89	254
90	210
91	675
92	4
103	26
104	26
105	149
106	4
117	35
118	96
119	403
120	4
121	26
133	789
134	96
145	3
148	999
149	807
150	70
163	2
176	982
177	333
178	43
208	26
