Mass spectrum: (E)-2-HEXENAL; EI-MS
Formula: C6H10O
Exact mass: 98.07316
Instrument type: EI-MS
m/z	relative intensity
39	253
41	999
42	750
53	88
54	177
55	588
56	94
57	677
67	27
68	59
69	618
70	177
79	74
80	118
81	15
83	838
84	44
96	177
98	463
99	27
