Mass spectrum: 1,1-DIETHYL-2-ISOPROPYLHYDRAZINE; EI-MS
Formula: C7H18N2
Exact mass: 130.147
Instrument type: EI-MS
m/z	relative intensity
27	83
28	72
29	124
30	7
31	93
39	13
40	9
41	5
42	124
43	81
44	103
45	2
56	42
57	18
58	93
59	54
60	21
70	9
71	22
72	6
73	46
85	11
86	8
87	999
88	60
99	24
101	49
113	1
114	9
115	74
116	6
129	0
130	371
131	44
