Mass spectrum: PARA-METHOXYPHENYLTRIMETHYLSILANE; EI-MS
Formula: C10H16OSi
Exact mass: 180.09704
Instrument type: EI-MS
m/z	relative intensity
43	40
45	17
53	15
58	30
74	17
79	11
86	25
87	11
98	20
108	13
109	17
119	12
121	21
122	25
135	44
149	11
150	20
165	999
166	157
167	47
180	174
181	28
