Mass spectrum: ISOPROPENYL ACETATE; EI-MS
Formula: C5H8O2
Exact mass: 100.05243
Instrument type: EI-MS
m/z	relative intensity
14	20
15	83
26	14
27	32
29	17
38	14
39	67
40	13
41	80
42	45
43	999
44	21
57	24
58	168
72	68
100	54
