Mass spectrum: ACETALDEHYDE DIISOBUTYL ACETAL; EI-MS
Formula: C10H22O2
Exact mass: 174.16198
Instrument type: EI-MS
m/z	relative intensity
15	11
27	99
28	40
29	20
31	34
33	10
39	77
41	29
42	37
43	98
45	349
55	3
56	51
57	999
58	79
83	1
101	471
102	33
103	11
131	1
159	34
