Mass spectrum: 2-METHYL-1,4-NAPHTHOQUINONE; EI-MS
Name: VITAMIN K3
Formula: C11H8O2
Exact mass: 172.05243
Instrument type: EI-MS
m/z	relative intensity
17	16
18	59
26	14
27	26
28	51
29	17
37	33
38	94
39	251
40	47
49	16
50	251
51	73
52	19
53	26
57	17
58	22
61	19
62	42
63	69
64	12
65	22
66	27
67	26
72	11
73	23
74	151
75	143
76	484
77	98
85	10
86	22
87	28
88	17
89	63
90	10
101	29
102	10
104	554
105	154
106	11
113	16
114	27
115	435
116	414
117	39
129	35
132	13
143	27
144	374
145	44
157	12
171	27
172	999
173	128
174	19
