Mass spectrum: 2-HEXYL BUTYRATE; EI-MS
Name: 1-METHYLPENTYL BUTYRATE
Formula: C10H20O2
Exact mass: 172.14633
Instrument type: EI-MS
m/z	relative intensity
27	163
28	25
29	121
39	75
40	11
41	221
42	113
43	655
44	29
45	34
55	121
56	131
57	43
60	32
69	62
71	999
72	49
73	18
84	173
85	128
86	27
88	75
89	122
101	21
115	128
