Mass spectrum: HEXYL METHYL ETHER; EI-MS
Formula: C7H16O
Exact mass: 116.12012
Instrument type: EI-MS
m/z	relative intensity
15	51
27	116
28	15
29	110
31	14
33	49
39	72
41	156
42	120
43	117
45	999
46	20
47	10
55	121
56	417
57	19
69	89
70	13
84	129
85	10
