Mass spectrum: META-AMINOPHENOL-DI-TMS; EI-MS
Formula: C12H23NOSi2
Exact mass: 253.13182
Instrument type: EI-MS
m/z	relative intensity
56	60
41	51
43	79
44	79
45	150
46	14
47	39
51	2
52	19
54	5
55	7
57	2
58	10
59	74
60	28
61	3
63	13
64	13
65	38
66	1
67	12
68	14
70	11
72	1
73	363
74	81
75	227
76	2
78	7
80	17
82	14
84	1
91	7
92	29
93	9
95	3
98	43
99	6
103	11
104	1
105	9
106	25
108	2
109	1
110	9
111	12
112	112
113	1
115	9
116	21
117	7
118	1
119	14
120	13
121	11
122	1
123	10
124	4
125	1
126	1
127	1
128	11
129	13
131	2
132	12
133	19
134	13
135	1
136	19
137	13
139	9
141	1
143	11
147	77
148	65
149	6
150	37
151	17
152	20
153	1
162	15
163	19
164	25
165	3
166	434
167	55
168	27
169	1
178	18
179	20
180	23
181	28
182	46
183	7
192	11
205	1
207	22
208	10
217	10
218	1
219	6
220	13
222	33
223	1
224	31
236	18
237	34
238	999
239	209
240	85
249	10
252	3
253	597
254	149
255	63
