Mass spectrum: 1-BUTANOL; EI-MS
Formula: C4H10O
Exact mass: 74.07316
Instrument type: EI-MS
m/z	relative intensity
15	23
19	28
26	25
27	316
28	133
29	205
31	801
33	84
39	105
40	40
41	706
42	333
43	644
44	70
45	60
55	153
56	999
57	77
72	21
73	20
74	7
