Mass spectrum: 3,5-DIMETHYLBENZOIC ACID TRIMETHYLSILYL ESTER; EI-MS
Formula: C12H18O2Si
Exact mass: 222.10761
Instrument type: EI-MS
m/z	relative intensity
44	362
45	313
47	135
58	12
63	113
65	118
73	124
75	12
77	389
78	156
79	437
81	13
96	194
103	221
104	124
105	61
133	999
134	129
163	962
164	15
207	751
208	210
209	118
222	118
