Mass spectrum: ISOPROPYL SALICYLATE; EI-MS
Name: ISOPROPYL ORTHO HYDROXY BENZOATE
Formula: C10H12O3
Exact mass: 180.07864
Instrument type: EI-MS
m/z	relative intensity
27	35
39	89
41	56
43	64
59	6
63	28
64	45
65	92
92	243
93	60
120	999
121	290
122	19
138	317
139	26
180	128
181	13
