Mass spectrum: ISOPROPYL ORTHO TOLUATE (2-D1); EI-MS
Formula: C11H14O2
Exact mass: 178.09938
Instrument type: EI-MS
m/z	relative intensity
27	40
29	17
39	118
40	23
41	88
42	90
43	61
44	172
51	37
55	31
57	41
60	22
63	59
65	248
77	40
79	23
89	77
90	260
91	576
92	67
118	999
119	774
120	73
135	32
136	573
137	73
179	95
180	13
