Mass spectrum: NEOISOMENTHOL; EI-MS
Name: 1ALPHA,2ALPHA,5ALPHA-5-METHYL-2-(1-METHYLETHYL)CYCLOHEXAN-1-OL
Formula: C10H20O
Exact mass: 156.15142
Instrument type: EI-MS
m/z	relative intensity
27	121
29	103
31	33
39	131
40	19
41	379
42	51
43	273
44	37
45	22
51	16
53	72
54	42
55	367
56	176
57	196
58	26
59	16
65	16
67	217
68	95
69	297
70	92
71	999
72	40
73	12
77	22
79	27
80	44
81	502
82	289
83	72
84	20
85	79
86	32
91	11
93	17
94	32
95	550
96	192
97	30
99	33
109	82
110	49
111	12
112	13
113	18
123	203
124	20
138	213
139	22
