Mass spectrum: 2-VINYLOXY-1,1'-BICYCLOHEXENE; EI-MS
Formula: C14H24O
Exact mass: 208.18272
Instrument type: EI-MS
m/z	relative intensity
26	20
28	42
41	192
43	20
53	23
54	20
55	623
56	25
67	156
68	16
69	170
77	15
79	48
80	12
81	225
82	86
83	999
84	85
93	15
95	278
96	30
97	212
98	12
109	430
110	38
123	70
166	535
167	70
193	20
208	28
