Mass spectrum: METHAMPYRONE; EI-MS
Formula: C13H16N3NaO4S
Exact mass: 333.07592
Instrument type: EI-MS
m/z	relative intensity
25	1
26	19
27	43
28	17
29	39
30	20
31	3
32	1
36	8
37	12
38	24
39	5
40	29
41	51
42	218
43	0
44	48
45	6
46	2
47	1
48	62
49	2
50	19
51	6
52	29
53	17
54	52
55	4
56	999
57	109
58	13
59	0
60	1
61	5
62	7
63	3
64	124
65	31
66	29
67	3
68	34
69	12
70	15
71	1
72	1
73	1
74	5
75	1
79	13
80	9
81	9
82	1
83	263
84	24
85	5
89	0
90	9
91	69
92	20
93	4
94	15
95	17
96	61
97	7
98	93
99	6
100	1
102	0
103	16
104	37
105	23
106	2
107	5
108	4
109	11
110	1
111	12
112	13
113	1
114	0
115	3
116	4
117	5
118	1
119	100
120	19
121	17
122	1
123	150
124	57
125	23
126	0
127	1
128	2
129	3
130	1
131	5
132	9
133	9
134	0
135	12
136	1
137	8
138	0
140	1
141	1
142	1
143	0
144	7
145	2
146	4
147	1
148	10
149	7
157	8
158	0
159	10
160	7
161	8
162	0
169	4
170	1
171	3
173	1
174	5
175	8
184	1
185	0
186	8
187	6
188	10
189	0
197	1
198	11
199	4
200	1
201	5
202	6
203	2
214	1
215	39
216	89
217	187
218	4
219	4
220	1
224	3
225	0
226	5
227	8
228	8
229	1
230	26
231	20
232	4
238	0
239	3
240	4
241	5
242	0
244	2
261	5
270	1
271	1
273	2
