Mass spectrum: 6-METHYL-4-OXO-6,7,8,9-TETRAHYDRO-4H-PYRIDO(1,2-A)PYRIMIDINE-3-CARBOXAMIDE; EI-MS
Formula: C10H13N3O2
Exact mass: 207.10078
Instrument type: EI-MS
m/z	relative intensity
67	80
68	80
69	60
70	5
94	60
95	50
96	50
107	3
108	30
122	40
133	50
134	12
135	40
136	130
137	60
149	6
162	220
174	50
175	300
189	11
190	999
191	210
192	30
206	1
207	500
208	60
