Mass spectrum: BUTYL STEARATE; EI-MS
Formula: C22H44O2
Exact mass: 340.33413
Instrument type: EI-MS
m/z	relative intensity
45	21
53	26
54	641
55	999
56	810
57	41
59	306
60	23
67	67
68	40
69	238
70	5
71	211
73	328
74	35
81	5
82	28
83	135
84	72
85	13
87	67
95	52
97	113
98	10
101	114
109	22
111	56
112	3
115	52
116	276
117	122
125	2
129	196
130	20
143	33
157	2
171	31
185	73
211	41
213	3
228	25
229	86
239	95
241	3
256	59
257	234
258	41
267	6
284	79
285	146
286	2
341	48
