Mass spectrum: 1,1,1-TRIFLUOROACETYLACETONE; EI-MS
Name: 1,1,1-TRIFLUORO-2,4-PENTADIONE
Formula: C5H5F3O2
Exact mass: 154.02416
Instrument type: EI-MS
m/z	relative intensity
15	85
26	19
27	72
29	73
31	67
38	24
39	84
40	16
41	77
42	81
43	999
44	46
45	60
50	22
51	35
53	17
55	39
69	501
70	17
77	15
85	573
86	28
89	18
91	22
94	44
97	13
107	36
119	56
127	10
139	86
154	111
155	18
