Mass spectrum: HEXANAL BENZYL HEXYL ACETAL; EI-MS
Formula: C19H32O2
Exact mass: 292.24023
Instrument type: EI-MS
m/z	relative intensity
27	26
29	33
39	21
41	75
42	17
43	158
55	38
56	19
57	54
65	27
77	14
79	19
82	15
83	47
85	22
90	11
91	999
92	101
101	21
107	22
108	15
221	23
