Mass spectrum: PHENYLTRIMETHOXYSILANE; EI-MS
Formula: C9H14O3Si
Exact mass: 198.07122
Instrument type: EI-MS
m/z	relative intensity
59	164
61	54
90	367
91	377
92	49
107	327
120	999
121	424
122	73
136	53
137	95
167	190
198	337
199	54
