Mass spectrum: 4-METHOXY-6-METHYLPYRIMIDINE; EI-MS
Formula: C6H8N2O
Exact mass: 124.06366
Instrument type: EI-MS
m/z	relative intensity
17	320
19	600
40	180
66	17
67	999
68	100
94	380
95	2
123	600
124	860
125	40
