Mass spectrum: 1-ALLYL-2,2,6,6-TETRAMETHYL-2,6-DISILAPIPERIDINE; EI-MS
Formula: C10H23NSi2
Exact mass: 213.1369
Instrument type: EI-MS
m/z	relative intensity
42	19
43	14
45	144
52	144
58	91
59	220
66	96
69	19
72	100
73	110
75	139
102	81
117	120
119	43
131	148
132	77
133	144
159	440
160	110
161	91
174	100
186	77
198	999
199	187
200	139
213	177
