Mass spectrum: 1-METHYL-4-ISOPROPENYLCYCLOHEXENE; EI-MS
Formula: C10H16
Exact mass: 136.1252
Instrument type: EI-MS
m/z	relative intensity
41	227
43	53
53	115
55	67
65	39
67	316
68	670
69	147
77	117
79	293
80	157
81	133
91	146
92	232
93	999
94	286
95	100
105	58
107	282
108	69
121	372
122	40
136	626
137	71
