Mass spectrum: 2,2,4-TRIMETHYLPENTANE; EI-MS
Formula: C8H18
Exact mass: 114.14085
Instrument type: EI-MS
m/z	relative intensity
27	54
29	96
39	51
40	13
41	206
42	13
43	189
55	34
56	359
57	999
58	45
99	59
