Mass spectrum: PENTADECANE; EI-MS
Formula: C15H32
Exact mass: 212.2504
Instrument type: EI-MS
m/z	relative intensity
27	77
28	37
29	207
39	42
40	10
41	322
42	97
43	803
44	25
53	15
54	18
55	167
56	145
57	999
58	45
67	13
68	15
69	75
70	102
71	584
72	35
82	13
83	42
84	72
85	377
86	25
97	27
98	57
99	105
111	10
112	42
113	72
126	32
127	60
140	22
141	55
154	15
155	47
168	10
169	30
183	15
212	135
213	25
