Mass spectrum: DIALLYLHYDRAZONE PROPIONALDEHYDE; EI-MS
Name: PROPIONALDEHYDE DIALLYLHYDRAZONE
Formula: C9H16N2
Exact mass: 152.13135
Instrument type: EI-MS
m/z	relative intensity
28	118
29	102
30	26
38	1
39	214
40	46
41	999
42	9
43	69
53	24
54	56
55	56
56	96
57	8
58	8
67	3
68	47
69	40
70	30
73	1
81	22
82	22
83	90
84	1
94	15
95	11
96	21
97	1
109	11
110	7
111	20
123	3
124	27
125	96
126	10
137	1
151	14
152	169
153	27
