Mass spectrum: 3,5-DIMETHYL-4-HYDROXYMETHYL-ISOXAZOLE; EI-MS
Formula: C6H9NO2
Exact mass: 127.06333
Instrument type: EI-MS
m/z	relative intensity
127	999
112	120
110	250
109	360
84	640
82	640
68	750
43	880
42	820
