Mass spectrum: 2,4,4-TRIMETHYL-3-TRIMETHYLSILOXYHEPTA-2,6-DIENE; EI-MS
Formula: C13H26OSi
Exact mass: 226.17529
Instrument type: EI-MS
m/z	relative intensity
41	71
45	67
55	67
67	99
73	592
74	52
75	212
83	30
93	34
95	999
96	80
156	157
157	31
170	51
185	571
186	99
187	28
211	96
226	120
227	25
