Mass spectrum: META-ETHYLPHENOL; EI-MS
Formula: C8H10O
Exact mass: 122.07316
Instrument type: EI-MS
m/z	relative intensity
18	15
27	12
38	15
39	4
41	12
50	16
51	25
52	2
53	15
55	11
59	13
60	1
61	11
62	16
65	30
66	2
77	80
78	20
79	31
91	4
93	16
94	29
103	20
105	1
107	999
108	59
121	35
122	38
123	31
