Mass spectrum: ETHYL ACRYLATE; EI-MS
Formula: C5H8O2
Exact mass: 100.05243
Instrument type: EI-MS
m/z	relative intensity
27	115
28	39
29	137
31	11
41	21
43	54
44	19
45	133
54	55
55	999
56	118
57	18
58	66
72	16
73	104
82	49
85	55
99	82
100	63
