Mass spectrum: DIISOBUTYLHYDRAZONE ISOBUTYRALDEHYDE; EI-MS
Name: ISOBUTYRALDEHYDE DIISOBUTYLHYDRAZONE
Formula: C12H26N2
Exact mass: 198.2096
Instrument type: EI-MS
m/z	relative intensity
27	44
28	24
29	124
30	11
39	30
40	6
41	148
42	8
43	129
44	14
53	5
54	1
55	37
56	25
57	186
58	2
68	8
69	8
70	71
71	1
72	19
82	7
83	6
84	2
86	20
97	7
99	422
100	3
111	7
113	16
127	5
141	1
155	999
156	110
183	12
197	1
198	108
199	18
