Mass spectrum: BIPHENYL; EI-MS
Formula: C12H10
Exact mass: 154.07825
Instrument type: EI-MS
m/z	relative intensity
39	15
50	17
51	40
63	34
64	36
74	13
75	18
75.5	10
76	124
76.5	18
77	53
89	10
102	16
115	31
126	17
127	20
128	23
139	15
150	18
151	63
152	226
153	353
154	999
155	126
