Mass spectrum: PROPYL LACTATE; EI-MS
Formula: C6H12O3
Exact mass: 132.07864
Instrument type: EI-MS
m/z	relative intensity
15	19
19	16
26	13
27	13
29	73
30	12
31	23
39	3
41	106
42	20
43	246
44	2
45	999
46	21
59	15
75	59
