Mass spectrum: CYCLOOCTANE; EI-MS
Formula: C8H16
Exact mass: 112.1252
Instrument type: EI-MS
m/z	relative intensity
15	14
27	268
28	84
29	222
39	354
40	64
41	865
42	524
43	392
51	27
53	89
54	98
55	903
56	999
57	168
67	118
68	210
70	628
71	79
82	132
83	535
84	378
97	97
110	18
111	121
112	481
113	42
