Mass spectrum: EXO-TRICYCLO(4.4.1.1(2,5))DODECA-3,8-DIEN-11-YL PARA-TOLENSULFONATE; EI-MS
Formula: C19H22O3S
Exact mass: 330.12897
Instrument type: EI-MS
m/z	relative intensity
51	77
52	24
53	33
55	20
57	19
61	85
62	65
63	591
65	102
66	145
67	120
68	13
69	19
70	16
76	14
77	196
78	554
79	199
80	195
81	33
89	25
90	14
91	627
92	999
93	189
102	14
103	27
104	136
105	32
107	15
108	14
115	141
116	61
117	161
118	18
127	31
128	136
129	166
130	109
131	27
141	41
142	31
143	103
144	14
153	13
155	24
156	19
157	29
158	264
159	35
172	12
235	17
250	20
252	33
