Mass spectrum: HEXYLALDEHYDE; EI-MS
Formula: C6H12O
Exact mass: 100.08882
Instrument type: EI-MS
m/z	relative intensity
27	56
28	35
29	168
30	1
31	11
40	12
41	373
42	6
43	448
44	999
45	209
54	2
55	88
56	906
57	315
58	10
60	13
67	90
69	13
71	7
72	218
73	12
81	12
82	16
83	16
100	13
