Mass spectrum: 5,5-DIETHYL-1-METHYL-BARBITURIC-ACID; EI-MS
Formula: C9H14N2O3
Exact mass: 198.10044
Instrument type: EI-MS
m/z	relative intensity
36	8
37	10
38	21
39	17
40	50
41	304
42	88
43	6
44	84
50	13
51	22
52	2
53	62
54	51
55	220
56	1
57	50
58	78
64	10
65	1
66	23
67	40
68	36
69	11
70	50
71	18
77	13
78	0
79	11
80	20
81	18
82	2
83	168
84	34
85	31
94	2
95	20
96	21
97	51
98	1
99	22
108	14
109	4
110	1
111	13
112	212
113	28
114	1
125	8
126	118
127	24
128	0
140	14
141	20
142	24
155	8
156	71
157	12
168	10
169	25
170	999
171	100
172	17
173	0
198	11
199	2
