Mass spectrum: 6-METHYL-4-OXO-6,7,8,9-TETRAHYDRO-4H-PYRIDO(1,2-A)PYRIMIDINE-3-ACETIC ACID ETHYL ESTER; EI-MS
Formula: C13H18N2O3
Exact mass: 250.13174
Instrument type: EI-MS
m/z	relative intensity
39	105
41	86
52	45
54	5
55	273
82	68
96	34
123	14
135	95
149	50
150	45
161	3
163	50
175	45
176	350
177	999
178	136
179	16
196	20
204	28
205	173
249	14
250	427
251	59
