Mass spectrum: (Z)-3,7-DIMETHYL-2,6-OCTADIENENITRILE; EI-MS
Name: CIS-GERANYL NITRILE
Formula: C10H15N
Exact mass: 149.12045
Instrument type: EI-MS
m/z	relative intensity
41	99
69	999
70	43
81	8
108	10
121	24
134	206
135	2
148	49
149	67
