Mass spectrum: BARBITAL; EI-MS
Formula: C8H12N2O3
Exact mass: 184.08479
Instrument type: EI-MS
m/z	relative intensity
37	60
38	100
39	850
40	160
41	880
42	120
43	150
44	390
52	60
53	260
54	220
55	650
56	120
68	60
69	330
70	270
83	320
85	130
98	300
112	270
141	850
142	60
155	460
156	999
157	80
184	70
