Mass spectrum: 2,2,7,7-TETRAMETHYLOCTA-4,5-DIEN-3-ONE; EI-MS
Formula: C12H20O
Exact mass: 180.15142
Instrument type: EI-MS
m/z	relative intensity
41	380
43	999
55	180
57	81
58	210
69	170
95	100
123	1
165	110
180	70
