Mass spectrum: 5-BUTYL-5-ETHYL-BARBITURIC ACID; EI-MS
Formula: C10H16N2O3
Exact mass: 212.11609
Instrument type: EI-MS
m/z	relative intensity
25	16
26	82
27	302
28	35
29	268
30	16
31	4
32	0
36	18
37	21
38	20
39	2
40	54
41	431
42	70
43	15
44	104
45	15
49	9
50	2
51	28
52	30
53	92
54	6
55	451
56	90
57	48
58	1
59	4
63	8
64	10
65	2
66	19
67	54
68	34
69	1
70	49
71	12
72	8
73	1
77	18
78	9
79	21
80	5
81	28
82	28
83	115
84	3
85	34
86	5
91	10
92	1
93	10
94	29
95	20
96	2
97	26
98	194
99	24
107	1
108	18
109	14
110	10
111	2
112	68
113	19
114	18
115	0
123	10
124	11
125	11
126	5
127	10
128	11
129	9
140	2
141	999
142	231
143	28
152	0
153	10
154	12
155	101
156	75
157	76
158	18
166	8
167	13
168	19
169	19
170	4
171	1
184	64
185	120
186	18
187	0
212	4
213	15
214	2
