Mass spectrum: BETA-PHENYL-ETHYLAMINE; EI-MS
Formula: C8H11N
Exact mass: 121.08915
Instrument type: EI-MS
m/z	relative intensity
30	999
39	33
51	27
65	44
91	98
92	43
121	41
