Mass spectrum: ISOBUTYL ISOVALERATE; EI-MS
Name: 3-METHYLBUTANOIC ACID ISOBUTYL ESTER
Formula: C9H18O2
Exact mass: 158.13068
Instrument type: EI-MS
m/z	relative intensity
15	16
27	114
28	30
29	244
31	16
39	102
40	20
41	356
42	54
43	121
45	15
55	44
56	644
57	885
58	39
59	27
60	170
61	41
69	15
73	28
85	999
86	59
87	89
101	14
102	42
103	252
104	15
115	46
116	48
128	21
158	6
