Mass spectrum: METHYL ISOPROPYL ETHER; EI-MS
Formula: C4H10O
Exact mass: 74.07316
Instrument type: EI-MS
m/z	relative intensity
23	25
24	39
25	247
26	4
27	184
28	40
29	331
30	3
31	181
32	26
37	20
38	2
39	119
40	31
41	170
42	10
43	287
44	21
45	35
59	999
60	42
73	44
74	65
