Mass spectrum: 3-HYDROXY-3-METHYL-2-PENTANONE; EI-MS
Name: DIACETONE ALCOHOL
Formula: C6H12O2
Exact mass: 116.08373
Instrument type: EI-MS
m/z	relative intensity
15	84
26	13
27	59
29	34
31	84
39	53
41	64
42	48
43	999
44	19
55	14
56	36
57	12
58	149
59	402
60	12
83	11
98	22
101	120
