Mass spectrum: 2-PROPOXYETHANOL; EI-MS
Name: ETHYLENE GLYCOL MONO PROPYL ETHER
Formula: C5H12O2
Exact mass: 104.08373
Instrument type: EI-MS
m/z	relative intensity
15	23
19	25
27	162
28	21
29	46
31	128
39	36
41	235
42	52
43	999
44	45
45	393
46	10
55	34
57	31
58	25
59	21
73	204
74	10
75	41
86	53
