Mass spectrum: METHYL (6S)-6-METHYL-3-OXO-7-OCTENOATE; EI-MS
Formula: C10H16O3
Exact mass: 184.10994
Instrument type: EI-MS
m/z	relative intensity
43	400
55	85
57	36
67	5
68	40
69	237
74	999
75	4
80	27
81	49
82	89
83	40
84	250
88	22
92	63
93	12
95	201
96	143
97	40
98	5
101	27
106	675
107	98
108	7
109	112
110	825
111	350
112	4
116	950
123	40
124	89
129	23
134	89
137	94
152	107
155	4
166	201
169	71
184	31
