Mass spectrum: 3-ACETYL-2,6-DIMETHYL-2,5-HEPTADIENE; EI-MS
Name: 6-METHYL-3-(1-METHYLETHYLIDENE)HEPT-5-EN-2-ONE
Formula: C11H18O
Exact mass: 166.13577
Instrument type: EI-MS
m/z	relative intensity
26	91
27	68
28	10
39	14
40	28
41	389
42	25
43	999
45	46
51	40
53	113
55	14
56	30
57	53
65	58
66	2
67	244
68	34
69	243
77	8
79	109
81	498
82	45
83	13
91	122
93	96
94	18
95	21
96	21
105	59
107	86
108	5
109	256
110	28
111	60
121	3
123	773
124	76
133	71
136	3
137	27
147	27
151	942
152	11
166	554
167	80
