Mass spectrum: ACETALDEHYDE 2E-HEXENYL 3Z-HEXENYL ACETAL; EI-MS
Formula: C14H26O2
Exact mass: 226.19328
Instrument type: EI-MS
m/z	relative intensity
27	59
29	66
31	10
39	75
41	314
42	29
43	57
45	35
53	36
54	55
55	544
56	48
57	31
67	83
68	16
69	38
81	19
82	85
83	999
84	70
113	11
127	82
