Mass spectrum: ACETONE; EI-MS
Formula: C3H6O
Exact mass: 58.04186
Instrument type: EI-MS
m/z	relative intensity
42	65
43	999
44	12
57	13
58	504
59	20
