Mass spectrum: 22-DIHYDROCHONDRILLASTEROL; EI-MS
Name: STIGMAST-7-EN-3-OL(3BETA,5ALPHA,24S)
Formula: C29H50O
Exact mass: 414.38617
Instrument type: EI-MS
m/z	relative intensity
29	14
41	38
43	100
55	51
56	46
67	21
69	44
70	10
71	26
79	27
81	47
82	15
83	29
84	13
85	28
91	33
93	32
94	21
95	51
96	13
97	25
105	42
106	15
107	65
108	17
109	29
110	11
111	19
117	15
119	40
120	20
121	34
122	17
123	23
124	11
129	10
131	24
133	40
134	28
135	43
136	16
137	16
143	11
145	30
146	11
147	47
148	14
149	20
151	13
157	12
159	26
160	11
161	41
163	12
171	11
173	18
175	10
178	15
185	10
187	12
199	11
201	16
213	49
214	12
215	13
218	18
219	12
228	13
229	62
230	14
231	70
232	31
233	12
246	44
247	24
255	299
256	67
257	21
271	12
272	19
273	123
274	30
275	14
381	13
396	12
399	160
400	50
401	9
412	13
413	9
414	999
415	320
416	54
