Mass spectrum: ETHYLENE GLYCOL DIACETATE; EI-MS
Formula: C6H10O4
Exact mass: 146.05791
Instrument type: EI-MS
m/z	relative intensity
15	14
42	12
43	999
44	26
116	13
