Mass spectrum: ETHYL PHENYLACETATE; EI-MS
Formula: C10H12O2
Exact mass: 164.08373
Instrument type: EI-MS
m/z	relative intensity
27	19
29	482
65	73
90	12
91	999
92	120
105	19
119	15
164	78
165	9
