Mass spectrum: 1,3-DI-O-TRIMETHYLSILYLOCTADECASPHINGANINE; EI-MS
Formula: C24H55NO2Si2
Exact mass: 445.37713
Instrument type: EI-MS
m/z	relative intensity
30	36
36	15
39	26
41	11
42	34
43	169
44	17
45	7
47	24
53	15
54	26
55	11
56	55
57	99
58	16
59	4
60	13
61	20
66	13
67	5
68	42
69	81
70	38
71	4
72	22
73	498
74	72
75	32
76	33
77	19
79	15
80	1
81	47
82	56
84	29
86	1
88	18
89	19
91	20
93	3
94	12
95	42
96	45
97	5
98	17
99	14
100	21
101	3
102	22
103	56
104	12
105	1
107	11
108	11
109	21
110	2
111	21
112	14
113	13
114	2
115	39
116	193
117	28
118	1
123	12
124	14
125	11
126	1
128	16
129	137
130	32
131	8
132	999
133	121
134	44
135	1
138	11
142	14
143	23
144	2
145	13
147	41
148	13
149	1
155	11
158	10
171	10
185	1
204	13
207	9
217	15
218	1
219	9
221	8
222	11
233	1
234	10
240	10
250	9
252	2
253	9
266	10
269	7
281	1
297	18
298	7
299	8
307	1
309	9
311	8
312	11
313	6
314	19
315	8
324	12
325	1
326	17
327	8
340	24
341	2
342	170
343	170
344	48
354	1
401	100
430	11
