Mass spectrum: 1,3,4,5,7-PENTA-O-ACETYL-2,6-ANHYDRO-D-GLYCERO-D-GULO-HEPTITOL; EI-MS
Formula: C17H24O11
Exact mass: 404.13186
Instrument type: EI-MS
m/z	relative intensity
69	555
73	227
81	409
84	5
86	136
97	909
100	45
102	23
111	182
112	182
124	27
135	1
136	18
139	727
140	364
141	23
145	545
148	27
158	73
178	1
182	909
200	118
201	27
206	1
211	909
213	45
224	999
242	27
243	45
284	45
302	18
344	18
