Mass spectrum: BENZYL METHYL ETHER; EI-MS
Formula: C8H10O
Exact mass: 122.07316
Instrument type: EI-MS
m/z	relative intensity
15	13
29	14
39	57
41	16
45	42
50	28
51	71
52	16
63	40
65	139
77	204
78	23
79	56
89	50
90	25
91	999
92	239
93	21
105	36
107	14
121	603
122	569
123	45
