Mass spectrum: BENZALDEHYDE BENZYL ETHYL ACETAL; EI-MS
Formula: C16H18O2
Exact mass: 242.13068
Instrument type: EI-MS
m/z	relative intensity
27	27
29	65
39	42
41	2
50	21
51	123
52	29
63	3
64	13
65	128
77	265
78	4
79	278
80	17
89	27
90	2
91	999
92	151
105	117
106	2
107	349
108	20
135	637
136	18
137	15
151	40
167	15
196	2
197	62
