Mass spectrum: 2-TRIMETHYLSILOXYOCTANE; EI-MS
Formula: C11H26OSi
Exact mass: 202.17529
Instrument type: EI-MS
m/z	relative intensity
43	32
45	65
47	26
55	48
56	17
57	14
58	14
59	22
61	39
69	15
70	17
72	14
73	494
74	46
75	400
76	29
77	15
101	15
103	18
117	999
118	108
119	40
187	86
188	14
202	1
