Mass spectrum: 2-ETHYL-4,5-DIMETHYLOXAZOLE; EI-MS
Formula: C7H11NO
Exact mass: 125.08406
Instrument type: EI-MS
m/z	relative intensity
27	39
29	82
39	19
41	313
42	999
43	750
44	10
53	10
54	91
55	775
56	511
57	341
68	79
69	396
70	657
71	51
82	761
83	80
96	166
97	12
110	968
111	165
123	121
124	849
125	980
126	325
127	20
