Mass spectrum: N-(3-HYDOXYPROPYL)MORPHOLINE; EI-MS
Formula: C7H15NO2
Exact mass: 145.11028
Instrument type: EI-MS
m/z	relative intensity
41	88
42	312
43	479
44	45
54	20
55	38
56	193
57	106
70	43
71	18
84	17
86	17
87	9
98	10
100	999
101	67
145	57
