Mass spectrum: 2-THIOPHENECARBOXYLIC ACID METHYL ESTER; EI-MS
Formula: C6H6O2S
Exact mass: 142.00885
Instrument type: EI-MS
m/z	relative intensity
38	13
39	223
57	13
81	1
82	17
83	87
97	8
111	999
112	70
113	43
141	21
142	37
143	26
144	17
