Mass spectrum: ACETALDEHYDE DIETHYL ACETAL; EI-MS
Formula: C6H14O2
Exact mass: 118.09938
Instrument type: EI-MS
m/z	relative intensity
15	46
19	14
26	21
27	141
29	164
30	11
31	56
42	14
43	189
44	70
45	999
46	28
47	195
61	34
72	15
73	596
74	27
75	62
103	153
