Mass spectrum: FUMARIC ACID DIETHYL ESTER; EI-MS
Name: TRANS-BUTENEDIOIC ACID DIETHYL ESTER
Formula: C8H12O4
Exact mass: 172.07356
Instrument type: EI-MS
m/z	relative intensity
15	36
26	118
27	218
28	126
29	421
30	18
31	45
43	67
44	102
45	155
53	88
54	109
55	246
56	18
71	103
72	27
81	77
82	125
83	13
98	31
99	627
100	123
101	10
117	50
125	31
126	259
127	999
128	97
129	10
143	29
145	27
