Mass spectrum: 4-TERPINEOL; EI-MS
Name: 4-METHYL-1-(1-METHYLETHYL)-3-CYCLOHEXEN-1-OL
Formula: C10H18O
Exact mass: 154.13577
Instrument type: EI-MS
m/z	relative intensity
59	141
69	386
71	999
81	188
86	488
92	142
93	596
110	79
111	611
121	135
125	52
136	178
139	318
154	327
155	27
