Mass spectrum: DIETHYL SULFIDE; EI-MS
Formula: C4H10S
Exact mass: 90.05032
Instrument type: EI-MS
m/z	relative intensity
15	23
26	139
27	751
28	134
29	497
33	16
34	51
35	169
41	81
45	287
46	191
47	811
48	21
49	32
57	40
58	128
59	154
60	122
61	571
62	509
63	32
64	22
75	999
76	29
77	35
89	23
90	690
91	29
92	22
