Mass spectrum: OCTANE; EI-MS
Formula: C8H18
Exact mass: 114.14085
Instrument type: EI-MS
m/z	relative intensity
27	145
28	29
29	228
39	84
40	16
41	316
42	135
43	999
44	32
53	14
55	93
56	149
57	383
58	16
69	17
70	150
71	267
72	16
84	85
85	389
86	25
114	146
115	14
