Mass spectrum: (CHLOROMETHYL)TRIMETHYLSILANE; EI-MS
Formula: C4H11ClSi
Exact mass: 122.03185
Instrument type: EI-MS
m/z	relative intensity
41	19
43	52
44	20
45	123
55	10
59	21
63	36
65	31
72	11
73	999
74	87
75	36
78	11
79	347
80	26
81	120
93	13
107	67
109	24
122	9
