Mass spectrum: O,O,O-TRIMETHYLPHOSPHOROTHIOATE; EI-MS
Formula: C3H9O3PS
Exact mass: 156.001
Instrument type: EI-MS
m/z	relative intensity
43	33
45	118
46	48
59	64
72	22
79	401
80	156
93	35
95	88
109	545
110	999
111	40
125	53
126	131
141	68
152	14
156	403
157	12
158	12
