Mass spectrum: 1-PHENYL-5-METHYLBICYCLO(3.2.2)NONAN-2-ONE; EI-MS
Formula: C16H20O
Exact mass: 228.15142
Instrument type: EI-MS
m/z	relative intensity
94	727
110	97
130	161
168	6
169	133
171	105
195	87
200	999
201	276
228	785
229	223
