Mass spectrum: ACETYLACETONE; EI-MS
Formula: C5H8O2
Exact mass: 100.05243
Instrument type: EI-MS
m/z	relative intensity
15	66
17	140
18	620
26	1
27	50
28	47
29	27
31	0
38	7
39	40
41	40
42	1
43	999
44	10
45	70
56	0
58	20
72	30
85	410
86	0
100	300
101	10
