Mass spectrum: (+)-CAMPHOR; EI-MS
Formula: C10H16O
Exact mass: 152.12012
Instrument type: EI-MS
m/z	relative intensity
40	265
42	32
43	82
51	29
52	17
53	94
54	26
55	292
56	22
57	20
59	12
65	31
66	13
67	183
68	149
69	375
71	19
77	44
78	10
79	49
80	100
81	571
82	115
83	290
84	33
91	40
92	11
93	90
94	17
95	999
96	98
97	49
105	11
107	12
108	336
109	218
110	157
111	21
121	16
123	10
135	120
136	25
137	27
139	22
152	191
153	21
