Mass spectrum: N-N-BUTYLCYCLOHEXYLAMINE; EI-MS
Formula: C10H21N
Exact mass: 155.1674
Instrument type: EI-MS
m/z	relative intensity
27	270
28	338
29	300
30	49
41	339
56	320
84	370
112	999
155	80
