Mass spectrum: PHENYLMETHANETHIOL; EI-MS
Formula: C7H8S
Exact mass: 124.03467
Instrument type: EI-MS
m/z	relative intensity
27	17
33	17
38	28
39	115
41	12
45	130
47	11
50	50
51	88
52	16
61	14
62	41
63	80
64	17
65	147
69	14
77	47
78	15
79	11
89	46
90	16
91	999
92	81
121	17
124	304
125	26
126	12
