Mass spectrum: 2,3,6,TRIHYDROXY-4-METHYLACETOPHENONE; EI-MS
Formula: C9H10O4
Exact mass: 182.05791
Instrument type: EI-MS
m/z	relative intensity
39	92
41	54
43	202
51	3
53	41
55	29
65	42
67	5
69	50
77	52
79	59
81	3
91	51
109	83
137	33
149	6
162	39
165	999
166	125
180	67
181	101
