Mass spectrum: 8-METHYLQUINOLINE; EI-MS
Formula: C10H9N
Exact mass: 143.0735
Instrument type: EI-MS
m/z	relative intensity
18	25
43	58
50	48
51	6
52	20
58	17
58.5	43
59	2
62	31
63	69
64	22
65	2
70.5	38
71.5	31
74	26
75	4
76	40
77	22
78	14
87	2
88	18
89	69
90	22
93	2
102	79
103	24
113	22
114	4
115	153
116	69
117	58
128	6
129	269
130	29
140	34
141	10
142	444
143	999
144	111
