Mass spectrum: 2-METHYLUNDECANAL; EI-MS
Formula: C12H24O
Exact mass: 184.18272
Instrument type: EI-MS
m/z	relative intensity
27	94
29	160
39	50
41	256
42	42
43	290
53	17
54	14
55	133
56	36
57	200
58	999
59	31
67	22
68	20
69	37
70	18
71	128
72	10
81	29
82	26
83	17
85	29
95	21
96	10
97	12
126	34
142	12
