Mass spectrum: TRANS-9,TRANS-12-OCTADECADIENOIC ACID METHYL ESTER; EI-MS
Formula: C19H34O2
Exact mass: 294.25588
Instrument type: EI-MS
m/z	relative intensity
44	133
51	44
53	88
54	36
55	555
58	22
65	77
66	8
67	999
68	411
69	311
70	3
71	44
73	66
77	111
78	2
79	322
80	155
81	866
82	54
83	177
84	33
85	33
87	4
91	100
93	144
94	133
95	60
96	411
97	122
101	66
104	3
105	33
106	44
107	77
108	11
109	233
110	188
111	77
112	4
113	22
115	44
119	22
120	7
121	122
122	44
123	122
124	8
125	22
128	22
129	22
131	2
132	33
134	44
135	111
136	13
137	66
138	22
139	44
143	2
148	44
149	88
150	155
151	4
152	33
155	22
156	22
160	3
163	44
164	100
170	33
173	7
175	33
177	22
178	55
180	3
182	55
183	22
187	55
194	2
195	55
196	22
206	44
210	6
215	22
217	33
220	55
221	6
223	22
224	22
231	33
233	3
262	55
263	66
264	55
294	12
295	33
