Mass spectrum: ISOPRENE; EI-MS
Formula: C5H8
Exact mass: 68.0626
Instrument type: EI-MS
m/z	relative intensity
15	20
26	47
27	317
28	37
29	28
39	570
40	355
41	352
42	195
49	21
50	91
51	121
52	59
53	768
54	35
61	23
62	35
63	43
65	92
66	75
67	999
68	805
69	41
