Mass spectrum: 6-HYDROXYQUINOLINE; EI-MS
Formula: C9H7NO
Exact mass: 145.05276
Instrument type: EI-MS
m/z	relative intensity
30	35
31	69
38	63
39	13
40	378
41	81
42	46
43	12
45	67
50	60
51	58
52	5
53	63
54	32
55	48
56	4
57	48
59	39
62	67
63	18
64	76
65	38
66	30
67	3
68	23
69	32
70	21
71	2
72	19
74	32
75	42
76	2
77	30
79	30
87	25
88	3
89	224
90	234
91	67
92	3
116	130
117	282
118	79
119	3
144	81
145	999
146	111
