Mass spectrum: ACETYLVANILLIN; EI-MS
Name: 4-ACETYLOXY-3-METHOXYBENZALDEHYDE
Formula: C10H10O4
Exact mass: 194.05791
Instrument type: EI-MS
m/z	relative intensity
15	83
27	15
29	18
38	11
39	34
41	28
42	13
43	469
44	10
50	34
51	88
52	58
53	36
55	12
62	12
63	31
64	8
65	41
67	11
77	26
79	62
80	26
81	49
95	27
108	16
109	73
119	11
123	11
137	40
150	49
151	612
152	999
153	91
194	72
195	7
