Mass spectrum: BUTYL PYRUVATE; EI-MS
Formula: C7H12O3
Exact mass: 144.07864
Instrument type: EI-MS
m/z	relative intensity
14	12
15	83
26	16
27	131
29	434
30	10
39	84
41	403
42	58
43	999
44	30
55	42
56	84
57	368
58	16
72	16
