Mass spectrum: 2-HEPTYLCYCLOPENTANONE; EI-MS
Formula: C12H22O
Exact mass: 182.16707
Instrument type: EI-MS
m/z	relative intensity
27	112
28	22
29	138
39	88
41	281
42	47
43	120
53	27
54	36
55	180
56	58
57	24
67	34
68	14
69	47
70	22
79	11
81	10
82	10
83	124
84	999
85	44
97	148
98	17
182	32
