Mass spectrum: BUTYL ALCOHOL; EI-MS
Name: 1-BUTANOL
Formula: C4H10O
Exact mass: 74.07316
Instrument type: EI-MS
m/z	relative intensity
14	12
15	42
19	24
26	55
27	465
28	142
29	266
30	18
31	951
33	79
37	13
38	27
39	202
40	43
41	736
42	338
43	641
44	37
45	76
50	11
51	12
53	12
55	155
56	999
57	63
73	14
