Mass spectrum: CIS-2-METHYL-6-(2-OXOPROPYL)CYCLOHEXANONE; EI-MS
Formula: C10H16O2
Exact mass: 168.11503
Instrument type: EI-MS
m/z	relative intensity
40	93
41	157
43	999
53	38
55	358
56	48
58	40
67	76
68	40
69	190
71	47
79	47
81	75
82	79
83	46
84	43
93	43
95	39
97	79
98	108
107	46
108	43
110	109
111	275
122	53
125	210
126	46
135	194
150	75
168	186
