Mass spectrum: ACETIC ACID ISOPROPYL ESTER; EI-MS
Name: ISOPROPYL ACETATE
Formula: C5H10O2
Exact mass: 102.06808
Instrument type: EI-MS
m/z	relative intensity
15	47
27	54
28	13
29	11
31	12
39	37
40	11
41	116
42	72
43	999
44	24
45	31
59	92
61	204
87	108
