Mass spectrum: 3,6-DIACETYL-9-METHYLCARBAZOLE; EI-MS
Formula: C17H15NO2
Exact mass: 265.11028
Instrument type: EI-MS
m/z	relative intensity
39	22
41	67
42	22
43	12
44	146
45	40
53	11
54	2
55	79
56	33
57	79
60	4
67	31
68	21
69	76
70	3
71	45
73	30
76	22
77	2
79	16
81	44
82	26
83	5
84	23
85	29
87	13
89	2
89.5	33
91	17
93	14
95	3
96	22
97	40
98	24
99	1
103.5	19
105	12
107	11
109	2
110	13
111	33
112	12
113	1
115	12
117.5	13
118	25
121	1
123	16
125	22
126	14
127	1
128	12
129	19
137	19
138	1
139	13
149	45
150	25
151	5
152	67
153	27
163	11
164	4
165	19
176	10
177	35
178	8
179	92
180	23
191	16
192	2
193	37
194	14
197	13
198	1
206	16
207	316
208	61
220	1
221	20
222	47
223	13
235	1
236	36
237	14
248	11
249	2
250	999
251	211
252	26
264	3
265	579
266	119
