Mass spectrum: CYCLOHEXENE; EI-MS
Formula: C6H10
Exact mass: 82.07825
Instrument type: EI-MS
m/z	relative intensity
26	20
27	117
28	34
29	17
38	20
39	209
40	29
41	226
42	19
50	29
51	44
52	23
53	71
54	467
55	34
65	23
66	15
67	999
68	60
77	28
79	40
81	74
82	301
83	20
