Mass spectrum: 3-METHYL-2-(TRIMETHYLSILYL)OXYBENZOIC ACIDTRIMETHYLSILYL ESTER; EI-MS
Name: TRIMETHYLSILYL 3-METHYL-2-TRIMETHYLSILOXYBENZOATE
Formula: C14H24O3Si2
Exact mass: 296.1264
Instrument type: EI-MS
m/z	relative intensity
43	37
45	190
47	50
51	3
59	31
73	999
74	82
75	11
77	100
78	31
79	26
91	4
105	71
106	31
133	50
134	3
135	29
147	108
149	246
150	3
193	31
207	42
208	121
209	3
223	76
281	568
282	137
283	58
