Mass spectrum: 3-ACETYL-1-TRIDEUTEROMETHYLINDOLE; EI-MS
Formula: C11H11NO
Exact mass: 173.08406
Instrument type: EI-MS
m/z	relative intensity
39	11
43	27
63	20
69	3
74	14
77	21
78	34
79	3
80.5	18
81	14
88	11
89	3
103	13
104	13
105	35
106	3
115	16
131	11
133	60
160	3
161	999
162	95
175	10
176	45
177	44
