Mass spectrum: CROTONALDEHYDE O-2,3,4,5,6-PENTAFLUOROBENZYLOXIME; EI-MS
Formula: C11H8F5NO
Exact mass: 265.0526
Instrument type: EI-MS
m/z	relative intensity
42	29
43	170
44	72
51	14
53	11
93	21
98	10
99	22
117	38
119	9
161	51
167	12
181	999
182	81
195	24
250	190
265	37
