Mass spectrum: PHENYLACETIC ACID; EI-MS
Formula: C8H8O2
Exact mass: 136.05243
Instrument type: EI-MS
m/z	relative intensity
27	12
38	20
39	111
41	14
45	36
50	31
51	51
52	17
62	21
63	65
64	18
65	156
66	11
77	23
89	43
90	29
91	999
92	201
93	10
136	301
137	24
