Mass spectrum: 2-AMINO-5-BROMO-4-PHENYLPYRIMIDINE-1-OXIDE; EI-MS
Formula: C10H8BrN3O
Exact mass: 264.98507
Instrument type: EI-MS
m/z	relative intensity
43	13
44	16
45	13
47	1
49	36
50	40
51	109
52	2
57	14
62	47
63	81
64	3
68	12
71	13
74	40
75	5
76	27
77	212
78	56
785	1
79	17
83	47
84	28
845	5
85	27
86	19
87	30
88	9
89	85
90	14
99	11
101	4
102	27
103	24
104	599
105	25
106	17
113	77
114	180
115	7
116	147
117	82
118	22
121	1
124	38
124.5	16
125	43
125.5	1
127	47
128	57
129	30
132.5	3
133.5	36
141	28
142	45
143	7
144	13
155	32
156	22
168	2
169	119
170	202
171	40
180	1
182	17
185	13
193	37
194	1
195	57
196	14
197	28
219	2
222	13
224	40
226	32
235	1
247	54
248	82
249	161
250	9
251	97
252	11
264	97
265	999
266	246
267	972
268	102
