Mass spectrum: 2'-ACETAMINOFLAVANONE; EI-MS
Name: 2-(2-ACETAMIDOPHENYL)CHROMAN-4-ONE
Formula: C17H15NO3
Exact mass: 281.10519
Instrument type: EI-MS
m/z	relative intensity
32	147
39	224
43	711
51	6
63	97
64	71
65	395
69	10
77	64
89	63
90	79
91	20
92	168
93	284
117	200
118	90
119	592
120	71
121	999
122	4
128	47
136	214
146	155
149	12
160	62
220	162
221	434
222	30
223	697
224	58
238	322
263	7
281	296
382.5	26
