Mass spectrum: 1,4-DINITROBENZENE; EI-MS
Formula: C6H4N2O4
Exact mass: 168.01711
Instrument type: EI-MS
m/z	relative intensity
26	13
27	29
28	91
30	931
37	40
38	74
39	64
44	20
46	13
49	18
50	695
51	83
52	25
53	44
61	23
62	43
63	175
64	283
65	27
73	31
74	227
75	999
76	703
77	60
91	26
92	340
93	23
122	305
123	21
138	7
152	21
168	788
169	58
