Mass spectrum: 3,9,10-TRIMETHOXYPTEROCARPAN; EI-MS
Formula: C18H18O5
Exact mass: 314.11542
Instrument type: EI-MS
m/z	relative intensity
115	120
123	110
127	190
128	340
133	250
137	250
139	180
147	140
148	450
151	180
152	90
157	340
161	410
162	100
165	130
166	160
168	90
178	180
185	90
191	100
299	210
313	190
314	999
315	160
