Mass spectrum: ISOPENTYL METHYL KETONE; EI-MS
Name: 5-METHYL-2-HEXANONE
Formula: C7H14O
Exact mass: 114.10447
Instrument type: EI-MS
m/z	relative intensity
15	33
27	62
28	19
29	55
39	49
41	109
42	25
43	999
44	23
55	36
56	32
57	137
58	425
59	110
71	99
72	27
81	43
85	18
86	12
99	11
114	25
115	12
