Mass spectrum: 4-ETHYL-2-ISOBUTYL-5-METHYLOXAZOLE; EI-MS
Formula: C10H17NO
Exact mass: 167.13101
Instrument type: EI-MS
m/z	relative intensity
41	81
42	80
43	509
54	120
55	41
56	20
57	60
68	10
69	84
70	11
82	227
83	25
84	178
94	29
96	246
97	10
110	318
111	11
124	695
125	999
126	239
152	457
153	57
166	157
167	432
168	82
