Mass spectrum: PHENYL BENZOATE; EI-MS
Formula: C13H10O2
Exact mass: 198.06808
Instrument type: EI-MS
m/z	relative intensity
27	10
38	14
39	87
50	58
51	175
63	17
65	63
74	11
76	17
77	449
78	23
105	999
106	73
198	53
