Mass spectrum: 7-METHOXY-2-PHENETHYLCHROMONE; EI-MS
Name: 7-METHOXY-2-PHENETHYL-4H-CHROMEN-4-ONE
Formula: C18H16O3
Exact mass: 280.10994
Instrument type: EI-MS
m/z	relative intensity
57	15
83	11
91	999
92	76
124	15
149	17
151	46
161	34
162	10
166	11
167	10
193	15
279	43
280	801
281	155
282	18
