Mass spectrum: 6-CHLORO-5-CYANO-3,4-DIHYDROPYRIMIDIN-4-ONE; EI-MS
Formula: C5H2ClN3O
Exact mass: 154.98864
Instrument type: EI-MS
m/z	relative intensity
35	28
36	160
37	10
38	18
39	40
40	19
41	14
43	1
47	111
48	36
49	35
50	4
51	40
53	11
55	12
57	2
62	44
63	47
64	104
65	9
66	18
67	48
73	13
76	5
77	53
82	12
85	214
86	1
87	52
92	32
93	824
94	5
99	39
100	29
101	13
111	1
120	111
127	391
128	151
129	14
130	52
137	16
149	16
155	999
156	82
157	386
158	27
