Mass spectrum: NORCARANE; EI-MS
Name: BICYCLO(4.1.0)HEPTANE
Formula: C7H12
Exact mass: 96.0939
Instrument type: EI-MS
m/z	relative intensity
41	264
42	27
51	34
53	200
54	736
55	519
56	32
65	45
66	106
67	999
68	569
73	29
77	36
79	62
81	958
82	55
95	79
96	548
97	47
