Mass spectrum: METHOXYBENZENE; EI-MS
Name: ANISOLE
Formula: C7H8O
Exact mass: 108.05751
Instrument type: EI-MS
m/z	relative intensity
50	62
51	128
52	36
53	11
62	19
63	58
64	35
65	513
66	32
74	20
75	12
76	13
77	169
78	570
79	117
80	10
92	15
93	153
94	14
107	25
108	999
109	79
