Mass spectrum: 2-ETHYLBUTYRALDEHYDE; EI-MS
Name: 2-ETHYLBUTANAL
Formula: C6H12O
Exact mass: 100.08882
Instrument type: EI-MS
m/z	relative intensity
15	15
26	20
27	203
28	22
29	217
31	13
38	13
39	127
40	15
41	237
42	42
43	999
44	33
51	11
53	22
54	13
55	98
56	22
57	109
58	29
70	11
71	221
72	302
73	13
82	51
100	40
