Mass spectrum: (E)-3,7-DIMETHYL-2,6-OCTADIENENITRILE; EI-MS
Name: TRANS-GERANYLNITRILE
Formula: C10H15N
Exact mass: 149.12045
Instrument type: EI-MS
m/z	relative intensity
41	294
68	12
69	999
70	4
81	43
134	57
148	11
149	24
