Mass spectrum: 5BETA,9,9,11BETA-TETRAMETHYL-3-PROPIONYL-8ALPHA-TETRACYCLO(5.5.0.0.0(1,5).0(1,11))TRIDECAN-2ALPHA-OL; EI-MS
Formula: C20H32O2
Exact mass: 304.24023
Instrument type: EI-MS
m/z	relative intensity
55	54
57	133
58	38
69	3
81	33
83	27
84	35
85	4
91	24
93	22
95	38
97	7
105	22
107	119
108	22
109	4
110	33
111	54
113	24
119	3
121	179
122	49
123	65
124	4
125	60
131	43
133	68
135	11
136	24
139	33
140	35
143	2
145	38
147	24
149	41
159	15
161	71
162	111
163	348
164	4
165	76
171	27
173	147
174	4
175	103
176	52
177	38
178	2
179	24
187	52
188	41
189	8
190	33
191	46
192	999
193	21
200	141
201	76
202	30
204	2
215	90
217	22
218	33
219	13
220	182
229	470
230	171
231	2
232	60
233	57
243	38
247	3
248	87
249	22
253	24
257	30
258	90
268	24
271	130
272	4
286	606
287	171
288	24
304	68
