Mass spectrum: ISOVALERIC ACID CINNAMYL ESTER; EI-MS
Formula: C14H18O2
Exact mass: 218.13068
Instrument type: EI-MS
m/z	relative intensity
27	166
29	179
39	193
41	224
51	87
57	856
63	43
65	42
77	94
85	999
91	145
103	47
115	370
117	520
118	60
131	14
133	73
134	67
218	128
219	20
