Mass spectrum: 3-(3,4-DIHYDROXYPHENYL)PROP-2-ENOIC ACID; EI-MS
Name: CAFFEIC ACID
Formula: C9H8O4
Exact mass: 180.04226
Instrument type: EI-MS
m/z	relative intensity
32	56
43	250
44	166
55	14
56	83
57	694
60	56
69	33
70	56
71	389
81	83
83	14
85	166
89	306
90	27
95	6
96	56
97	139
107	27
110	3
111	83
129	83
134	166
135	17
136	999
163	111
180	417
