Mass spectrum: 6,7-DIMETHYL-4'-METHOXYFLAVANONE; EI-MS
Name: 2-(4-METHOXYPHENYL)-6,7-DIMETHYLCHROMAN-4-ONE
Formula: C18H18O3
Exact mass: 282.12559
Instrument type: EI-MS
m/z	relative intensity
32	56
39	26
65	73
77	4
91	296
92	42
119	174
120	10
121	154
133	21
134	999
135	13
148	324
149	138
175	75
267	4
281	259
282	713
283	121
