Mass spectrum: EUDESMA-4(14),7(11)-DIEN-8-ONE; EI-MS
Name: 4-ISOPROPYLIDENE-1-METHYL-7-METHYLENE-TRANS-DECALIN-3-ONE
Formula: C15H22O
Exact mass: 218.16707
Instrument type: EI-MS
m/z	relative intensity
15	75
17	32
18	129
26	4
27	204
28	312
29	398
32	8
36	22
38	22
39	495
40	13
41	999
42	108
43	452
44	5
45	32
50	22
51	97
52	4
53	344
54	75
55	495
56	5
57	65
58	86
59	22
63	3
64	32
65	215
66	75
67	53
68	226
69	194
70	54
71	4
77	323
78	97
79	495
80	14
81	237
82	86
83	86
84	2
91	538
92	118
93	452
94	9
95	280
96	129
97	54
98	2
99	22
103	54
104	22
105	30
106	86
107	344
108	290
109	14
110	32
111	22
115	54
116	3
117	75
118	43
119	237
120	8
121	247
122	129
123	75
124	2
127	22
128	32
129	43
131	9
132	22
133	376
134	108
135	24
137	65
141	108
142	22
144	2
145	65
146	43
147	355
148	12
149	183
150	43
151	22
155	4
157	22
159	65
160	22
161	16
162	108
163	54
164	22
167	2
169	22
173	22
174	22
175	20
176	54
177	32
179	22
185	2
189	32
190	43
203	118
204	2
216	32
218	914
219	118
220	2
136	86
