Mass spectrum: 1,3-DICHLOROPROPENE; EI-MS
Formula: C3H4Cl2
Exact mass: 109.96901
Instrument type: EI-MS
m/z	relative intensity
35	32
36	47
37	120
38	14
39	505
40	22
47	36
48	3
49	210
51	65
73	63
75	999
76	27
77	286
83	28
110	20
112	124
