Mass spectrum: 2-METHYL-1-PYRROLINE; EI-MS
Formula: C5H9N
Exact mass: 83.0735
Instrument type: EI-MS
m/z	relative intensity
27	18
29	735
30	73
31	999
33	17
39	20
41	29
42	5
55	92
82	23
83	43
