Mass spectrum: DIETHYL ETHYLMALONATE; EI-MS
Formula: C9H16O4
Exact mass: 188.10486
Instrument type: EI-MS
m/z	relative intensity
15	17
26	27
27	331
28	39
29	999
30	21
31	38
39	90
40	19
41	157
42	55
43	311
44	12
45	141
55	310
56	10
59	13
60	11
68	20
69	130
70	168
71	68
73	498
74	18
85	11
86	84
87	149
88	132
89	22
99	31
101	217
102	11
104	18
105	13
114	48
115	71
116	76
129	22
132	37
133	63
142	35
143	540
144	39
160	505
161	52
173	11
