Mass spectrum: (3R,6S)-3-HYDROXY-6-METHYL-7-OCTENOIC ACID; EI-MS
Formula: C9H16O3
Exact mass: 172.10994
Instrument type: EI-MS
m/z	relative intensity
43	68
56	171
68	171
69	37
70	20
71	114
80	20
83	14
84	20
86	31
89	371
92	4
94	103
95	999
98	51
99	2
102	400
108	157
109	29
111	4
112	51
115	943
122	29
125	4
126	26
136	57
154	60
