Mass spectrum: 1-ACETYL-4-METHYL-3-(2-PYRIDYL)-2-PYRAZOLINE; EI-MS
Formula: C11H13N3O
Exact mass: 203.10586
Instrument type: EI-MS
m/z	relative intensity
78	206
79	376
105	35
117	21
118	62
127	47
132	45
133	12
146	462
160	999
161	595
162	3
202	43
203	285
