Mass spectrum: 3-(2-AMINOETHYL)-2,5-DIMETHYLINDOLE; EI-MS
Formula: C12H16N2
Exact mass: 188.13135
Instrument type: EI-MS
m/z	relative intensity
39	16
43	20
51	14
63	1
65	15
77	19
89	15
91	3
115	70
116	24
117	12
127	1
128	20
129	13
130	17
141	1
142	30
143	86
144	64
145	2
154	14
156	64
157	82
158	999
159	282
160	28
188	139
189	20
