Mass spectrum: 4-PHENYL-2-(2-OXOPROPYL)FURAN; EI-MS
Formula: C13H12O2
Exact mass: 200.08373
Instrument type: EI-MS
m/z	relative intensity
15	100
18	142
27	40
28	573
29	27
32	107
39	75
42	21
43	847
44	25
50	68
51	179
52	36
62	38
63	95
64	27
65	20
73	28
74	45
75	61
76	57
77	196
78	58
87	22
89	38
101	37
102	125
103	58
115	44
126	51
127	364
128	826
129	759
130	88
157	999
158	22
159	25
200	520
201	81
