Mass spectrum: CROTONIC ACID BUTYL ESTER; EI-MS
Formula: C8H14O2
Exact mass: 142.09938
Instrument type: EI-MS
m/z	relative intensity
29	44
39	24
41	217
42	17
43	17
45	12
55	48
56	259
57	36
68	16
69	999
70	54
73	12
82	17
85	13
86	836
87	46
99	26
113	11
127	24
142	5
