Mass spectrum: PARA AMINO ISOPROPYLBENZOATE; EI-MS
Formula: C10H13NO2
Exact mass: 179.09463
Instrument type: EI-MS
m/z	relative intensity
27	56
29	17
38	12
39	113
40	18
41	86
42	14
43	57
45	123
63	31
64	31
65	245
66	30
90	12
91	39
92	216
93	37
119	13
120	999
121	135
136	12
137	551
138	45
179	232
180	24
