Mass spectrum: 3-(2-AMINOETHYL)-2-METHYL-1,7-TRIMETHYLENEINDOLE; EI-MS
Formula: C14H18N2
Exact mass: 214.147
Instrument type: EI-MS
m/z	relative intensity
39	14
41	17
51	14
63	1
77	21
89	10
91	12
102	1
103	10
115	34
116	10
117	2
118	16
127	14
128	27
129	3
130	21
132	65
133	52
141	2
142	11
143	13
154	29
155	1
156	127
157	20
167	25
168	4
169	14
170	37
180	29
181	2
182	57
183	33
184	999
185	18
186	16
197	11
214	131
215	22
