Mass spectrum: DIETHYL FUMARATE; EI-MS
Name: FUMARIC ACID DIETHYL ESTER
Formula: C8H12O4
Exact mass: 172.07356
Instrument type: EI-MS
m/z	relative intensity
15	38
26	134
27	269
28	47
29	443
30	11
31	17
42	11
43	63
44	11
45	116
53	99
54	141
55	188
56	11
71	108
72	25
81	57
82	89
98	18
99	502
100	99
117	37
125	20
126	321
127	999
128	111
129	11
143	56
145	32
