Mass spectrum: ETHYL BUTANOATE; EI-MS
Name: ETHYL BUTYRATE
Formula: C6H12O2
Exact mass: 116.08373
Instrument type: EI-MS
m/z	relative intensity
40	120
42	120
43	759
44	16
45	159
55	37
57	13
60	205
61	99
70	91
71	999
72	46
73	181
88	540
89	163
101	76
116	45
