Mass spectrum: 1-OCTANOL; EI-MS
Name: OCTYL ALCOHOL
Formula: C8H18O
Exact mass: 130.13577
Instrument type: EI-MS
m/z	relative intensity
15	17
19	12
26	14
27	29
28	72
29	413
30	11
31	30
39	187
40	38
41	889
42	55
43	716
44	27
45	41
53	5
54	53
55	818
56	999
57	38
58	16
67	46
68	172
69	56
70	597
71	100
72	23
82	10
83	373
84	498
85	43
97	3
112	54
