Mass spectrum: 1-HEXANOL; EI-MS
Name: HEXYL ALCOHOL
Formula: C6H14O
Exact mass: 102.10447
Instrument type: EI-MS
m/z	relative intensity
15	18
19	11
26	16
27	22
28	53
29	239
31	290
39	14
40	29
41	454
42	434
43	59
44	21
45	32
53	21
54	3
55	489
56	999
57	67
67	1
69	280
70	33
71	16
73	1
83	15
84	129
85	14
