Mass spectrum: 2-HYDROXYETHYL METHACRYLATE; EI-MS
Name: ETHYLENE GLYCOL MONOMETHACRYLATE
Formula: C6H10O3
Exact mass: 130.06299
Instrument type: EI-MS
m/z	relative intensity
27	47
29	27
31	45
39	139
40	54
41	999
42	40
43	46
44	99
45	109
55	14
59	21
68	13
69	721
70	29
71	11
87	244
88	11
99	17
100	21
130	3
