Mass spectrum: 2-METHYLCYCLOHEXYL ACETATE; EI-MS
Formula: C9H16O2
Exact mass: 156.11503
Instrument type: EI-MS
m/z	relative intensity
43	304
54	31
55	61
56	1
57	24
58	21
61	15
66	3
67	160
68	215
69	43
71	3
72	76
81	491
82	44
85	2
95	60
96	999
97	121
112	1
113	21
114	66
115	12
