Mass spectrum: P-HYDROXYPHENYLACETIC ACID; EI-MS
Formula: C8H8O3
Exact mass: 152.04734
Instrument type: EI-MS
m/z	relative intensity
38	10
50	23
51	56
52	26
53	35
77	118
78	44
79	2
107	999
108	77
109	15
152	34
153	30
