Mass spectrum: 3-METHYLTETRAHYDROFURAN; EI-MS
Formula: C5H10O
Exact mass: 86.07316
Instrument type: EI-MS
m/z	relative intensity
27	97
28	32
29	143
39	11
41	584
42	49
43	39
44	6
55	136
56	999
57	101
71	7
85	56
86	251
