Mass spectrum: HEXYL LEVULINATE; EI-MS
Formula: C11H20O3
Exact mass: 200.14124
Instrument type: EI-MS
m/z	relative intensity
15	25
26	12
27	128
29	97
31	11
39	55
41	199
42	87
43	999
44	23
53	14
55	127
56	137
57	69
58	13
69	31
71	74
72	24
73	25
74	269
75	102
84	84
85	105
98	39
99	787
100	39
101	119
117	132
158	17
