Mass spectrum: N-(PARA-CHLOROPHENYLCARBAMOYL)-2-PYRROLIDONE; EI-MS
Formula: C11H11ClN2O2
Exact mass: 238.05091
Instrument type: EI-MS
m/z	relative intensity
25	4
26	33
27	98
28	25
29	60
30	122
31	6
32	0
35	2
36	8
37	36
38	5
39	124
40	41
41	300
42	13
43	15
44	19
45	5
46	0
47	5
48	2
49	14
50	5
51	26
52	25
53	6
54	2
55	38
56	264
57	54
58	1
59	2
60	5
61	23
62	5
63	146
64	68
65	26
66	1
67	3
68	5
69	122
70	3
71	3
72	9
73	52
74	2
75	70
76	16
77	7
78	1
79	1
80	1
81	1
82	0
83	3
84	74
85	110
86	4
87	8
88	13
89	32
90	18
91	34
92	14
93	2
97	1
98	17
99	88
100	15
101	3
102	5
103	2
104	2
105	0
106	3
107	2
108	1
109	0
110	1
111	29
112	50
113	1
114	1
117	1
118	3
119	1
120	2
124	9
125	212
126	7
127	230
128	33
129	54
130	1
131	1
132	2
133	3
134	0
135	1
138	2
139	1
140	1
141	1
142	2
147	5
148	0
152	3
153	999
154	110
155	34
156	32
157	2
167	1
168	0
169	5
170	1
171	2
180	0
181	2
182	1
195	3
196	0
197	1
198	1
202	8
203	7
204	8
205	1
237	3
238	33
239	60
240	74
241	16
242	2
