Mass spectrum: ORTHO NITRO ANISOLE; EI-MS
Name: ORTHO METHOXY NITROBENZENE
Formula: C7H7NO3
Exact mass: 153.04259
Instrument type: EI-MS
m/z	relative intensity
15	18
27	36
30	55
31	28
37	34
38	110
39	111
41	76
43	21
50	172
51	362
52	136
53	57
55	22
57	20
61	20
62	63
63	314
64	352
65	270
66	22
67	22
74	47
75	35
76	71
77	999
78	291
79	86
80	55
92	533
93	166
94	24
95	160
106	892
107	62
108	22
123	442
124	51
153	392
154	36
