Mass spectrum: DIPHENYL ETHER; EI-MS
Formula: C12H10O
Exact mass: 170.07316
Instrument type: EI-MS
m/z	relative intensity
51	67
65	34
77	276
78	2
79	10
91	30
92	61
94	4
107	10
115	64
116	17
140	1
141	328
142	266
143	29
168	2
169	123
170	999
171	129
172	12
