Mass spectrum: ISOBUTYL PHENYL KETONE; EI-MS
Formula: C11H14O
Exact mass: 162.10447
Instrument type: EI-MS
m/z	relative intensity
28	41
30	31
39	48
43	18
50	35
51	139
52	11
57	15
69	17
77	458
78	61
91	17
105	999
106	74
120	229
121	17
147	34
162	116
163	15
