Mass spectrum: PARA-(ALPHA-METHYLBENZYL)PHENOL; EI-MS
Formula: C14H14O
Exact mass: 198.10447
Instrument type: EI-MS
m/z	relative intensity
44	100
45	61
51	61
55	19
57	152
56	102
75	102
67	7
69	121
70	75
71	78
77	9
78	68
79	50
81	64
82	6
83	83
84	58
91	83
94	6
97	57
149	95
165	257
183	999
184	151
198	519
199	93
