Mass spectrum: S-ETHYL THIOACETATE; EI-MS
Formula: C4H8OS
Exact mass: 104.02959
Instrument type: EI-MS
m/z	relative intensity
15	64
26	19
27	108
28	12
29	77
35	23
42	33
43	999
44	23
45	58
46	28
47	46
57	13
58	30
59	27
60	14
61	48
62	25
104	295
105	13
106	13
