Mass spectrum: PARA-ETHYLBENZALDEHYDE; EI-MS
Formula: C9H10O
Exact mass: 134.07316
Instrument type: EI-MS
m/z	relative intensity
27	17
28	10
43	12
51	1
65	54
71	17
77	117
78	3
79	172
80	10
89	15
90	4
91	554
92	42
103	71
104	3
105	522
106	66
118	12
119	17
120	17
133	915
134	999
135	99
