Mass spectrum: 2-ETHYLCYCLOHEXYL ACETATE; EI-MS
Formula: C10H18O2
Exact mass: 170.13068
Instrument type: EI-MS
m/z	relative intensity
43	219
54	18
55	32
56	1
57	24
58	21
59	15
66	6
67	177
68	124
69	77
71	3
72	16
80	43
81	625
82	32
83	35
85	23
86	57
95	13
99	28
109	48
110	999
111	12
127	18
128	41
