Mass spectrum: 3-METHYL-2-BUTENYL BENZOATE; EI-MS
Formula: C12H14O2
Exact mass: 190.09938
Instrument type: EI-MS
m/z	relative intensity
26	19
27	147
29	57
37	17
38	39
39	254
41	452
42	59
43	19
50	80
51	224
52	33
53	259
54	20
55	19
62	11
63	13
65	27
66	22
67	370
68	718
69	378
70	22
74	15
76	20
77	410
78	36
79	18
85	56
105	999
106	66
122	18
123	25
131	13
190	23
