Mass spectrum: ETHYL 3-(1-BENZYLOXYETHYL)HEPTANOATE; EI-MS
Formula: C18H28O3
Exact mass: 292.20384
Instrument type: EI-MS
m/z	relative intensity
61	30
69	134
83	148
88	62
89	328
90	303
92	174
97	6
98	12
104	66
106	413
109	5
110	80
111	11
118	13
128	2
133	31
134	218
135	26
137	1
143	12
144	26
148	11
154	38
155	133
156	232
159	132
160	5
183	55
184	78
185	999
186	15
187	25
193	425
194	71
200	31
201	73
205	20
233	11
246	2
247	23
291	29
292	9
