Mass spectrum: ALLYL ALCOHOL; EI-MS
Formula: C3H6O
Exact mass: 58.04186
Instrument type: EI-MS
m/z	relative intensity
15	12
26	18
27	133
28	159
29	300
30	154
31	316
39	182
40	92
41	62
43	48
45	20
55	37
56	17
57	999
58	371
59	27
