Mass spectrum: CINNAMYL ALCOHOL; EI-MS
Name: 3-PHENYL-2-PROPEN-1-OL
Formula: C9H10O
Exact mass: 134.07316
Instrument type: EI-MS
m/z	relative intensity
44	25
45	24
46	74
55	7
56	37
57	16
58	16
59	2
72	18
73	17
77	22
78	29
79	71
87	30
88	15
89	6
91	339
92	734
93	58
102	1
103	71
105	336
106	52
107	2
114	25
115	159
116	115
117	7
118	14
119	14
131	23
132	3
133	259
134	999
135	99
177	12
