Mass spectrum: 1-IODO-2-METHYLPROPANE; EI-MS
Name: ISOBUTYL IODIDE
Formula: C4H9I
Exact mass: 183.97489
Instrument type: EI-MS
m/z	relative intensity
15	14
27	71
28	17
29	325
39	88
41	367
42	26
43	19
55	35
57	999
58	44
127	12
141	10
169	10
184	107
