Mass spectrum: 1-ETHYLPENTYL PROPIONATE; EI-MS
Name: 3-HEPTYL PROPIONATE
Formula: C10H20O2
Exact mass: 172.14633
Instrument type: EI-MS
m/z	relative intensity
27	81
28	22
29	248
39	26
41	102
42	25
43	52
44	11
55	60
56	93
57	999
58	38
69	54
70	39
72	11
75	25
85	15
98	64
115	71
143	39
