Mass spectrum: BUTYLMETHYLSILANE; EI-MS
Formula: C5H14Si
Exact mass: 102.08648
Instrument type: EI-MS
m/z	relative intensity
28	10
29	18
41	37
43	2
44	62
45	539
46	38
47	2
55	31
56	203
57	62
58	7
59	255
60	20
61	10
71	2
72	221
73	999
74	112
75	4
85	33
86	12
87	25
100	14
101	61
102	53
103	8
