Mass spectrum: 1-METHYL-1,2-EPOXYCYCLOHEXANE; EI-MS
Formula: C7H12O
Exact mass: 112.08882
Instrument type: EI-MS
m/z	relative intensity
15	30
18	20
26	15
27	22
28	105
29	140
30	5
31	1
32	10
38	15
39	320
40	8
41	590
42	215
43	800
44	18
45	30
47	10
50	15
51	3
52	15
53	140
54	90
55	57
56	140
57	190
58	260
59	3
65	20
66	40
67	260
68	23
69	370
70	80
71	340
72	4
77	25
79	50
81	40
82	2
83	195
84	170
85	45
86	1
87	5
91	10
94	5
95	1
96	5
97	999
98	80
99	1
111	80
112	220
113	15
