Mass spectrum: 3,5-DINITRO-N-(1-METHYL-3-(1,2,3,4-TETRAHYDRO-9-CARBAZOLYL)PROPYL)BENZAMIDE; EI-MS
Name: 9-(3-(3,5-DINITROBENZAMIDO)BUTYL)-1,2,3,4-TETRAHYDROCARBAZOLE
Formula: C23H24N4O5
Exact mass: 436.17467
Instrument type: EI-MS
m/z	relative intensity
75	59
143	92
156	97
157	5
167	51
168	82
169	36
170	13
171	59
184	848
185	216
195	5
212	22
218	56
419	53
436	999
