Mass spectrum: PROMETHAZINE; EI-MS
Name: 10-(2-DIMETHYLAMINOPROPYL)PHENOTHIAZINE
Formula: C17H20N2S
Exact mass: 284.13472
Instrument type: EI-MS
m/z	relative intensity
56	23
70	20
71	24
72	999
73	48
152	12
154	15
166	16
167	28
179	10
180	31
198	55
199	55
200	10
212	12
213	40
284	34
