Mass spectrum: PROPYL ACETATE; EI-MS
Formula: C5H10O2
Exact mass: 102.06808
Instrument type: EI-MS
m/z	relative intensity
15	45
18	20
26	80
27	10
28	70
39	60
41	140
42	8
43	999
44	30
45	20
55	23
56	200
57	30
58	10
61	11
70	290
71	20
73	140
88	4
90	10
