Mass spectrum: 1-PHENYLETHYL ACETATE; EI-MS
Formula: C10H12O2
Exact mass: 164.08373
Instrument type: EI-MS
m/z	relative intensity
15	73
27	66
38	11
39	84
42	18
43	999
44	21
50	82
51	238
52	54
53	18
62	12
63	48
65	24
74	21
75	19
76	24
77	425
78	238
79	259
80	14
89	16
91	22
102	25
103	213
104	971
105	764
106	65
107	355
108	22
121	83
122	820
123	66
164	202
165	19
