Mass spectrum: 6-PENTYL-2-PYRONE; EI-MS
Formula: C10H14O2
Exact mass: 166.09938
Instrument type: EI-MS
m/z	relative intensity
29	21
39	234
41	27
43	26
53	17
55	32
67	16
68	229
69	13
81	481
82	498
83	33
84	11
93	10
94	42
95	999
96	66
109	10
110	372
111	17
123	42
138	124
139	10
166	196
167	14
