Mass spectrum: META NITRO PHENOL; EI-MS
Name: META HYDROXY NITROBENZENE
Formula: C6H5NO3
Exact mass: 139.02694
Instrument type: EI-MS
m/z	relative intensity
26	13
27	47
28	21
29	16
30	72
37	31
38	84
39	570
40	24
43	22
50	47
51	38
52	17
53	130
55	26
61	23
62	50
63	147
64	80
65	896
66	71
74	23
75	23
81	187
92	41
93	626
94	68
109	49
120	30
138	20
139	999
140	73
