Mass spectrum: 3-METHYL-6-ISOPROPYL-2,5-PIPERADINEDIONE; EI-MS
Name: CYCLOALANYL-VALINE
Formula: C8H14N2O2
Exact mass: 170.10553
Instrument type: EI-MS
m/z	relative intensity
15	101
26	30
27	205
28	489
29	116
30	71
38	10
39	112
40	30
41	180
42	180
43	149
44	999
45	35
53	14
54	37
55	132
56	140
57	78
58	18
68	16
69	93
70	48
71	77
72	324
73	29
83	23
84	110
85	87
98	11
99	228
100	29
111	16
112	23
113	263
114	21
127	125
128	944
129	69
155	14
170	10
171	14
