Mass spectrum: (2S,2'S)-N,N'-DICARBOBENZOXY-2,2'-BIPYRROLIDINE; EI-MS
Formula: C24H28N2O4
Exact mass: 408.20491
Instrument type: EI-MS
m/z	relative intensity
28	55
57	12
70	24
91	850
92	80
149	15
159	43
160	999
161	105
167	23
203	195
204	570
205	100
206	81
257	16
273	561
274	142
275	16
408	101
409	37
