Mass spectrum: ALPHA-PHENYLETHYL ISOBUTYRATE; EI-MS
Formula: C12H16O2
Exact mass: 192.11503
Instrument type: EI-MS
m/z	relative intensity
27	113
28	14
39	65
41	81
42	13
43	315
50	18
51	85
52	17
63	14
65	12
71	147
77	193
78	79
79	108
103	87
104	307
105	999
106	83
107	21
121	26
122	282
123	19
192	89
