Mass spectrum: 3-TERT-BUTYLMERCAPTO-4-PHENYLPYRIDINE; EI-MS
Formula: C15H17NS
Exact mass: 243.10817
Instrument type: EI-MS
m/z	relative intensity
32	550
35	100
41	50
47	22
49	170
57	120
84	999
86	6
88	110
115	60
186	210
187	2
243	30
