Mass spectrum: BENZOIC ACID ISOPENTYL ESTER; EI-MS
Name: ISOPENTYL BENZOATE
Formula: C12H16O2
Exact mass: 192.11503
Instrument type: EI-MS
m/z	relative intensity
41	15
42	63
43	36
55	179
56	10
69	24
70	999
71	62
77	123
78	12
79	31
105	690
106	62
122	79
123	316
124	25
192	2
