Mass spectrum: BUTYLHYDRAZONE PROPIONALDEHYDE; EI-MS
Name: PROPIONALDEHYDE BUTYLHYDRAZONE
Formula: C7H16N2
Exact mass: 128.13135
Instrument type: EI-MS
m/z	relative intensity
27	120
28	240
29	180
30	56
39	54
40	12
41	120
42	5
43	52
44	30
54	18
55	2
56	144
57	46
58	18
69	1
70	30
71	26
72	16
85	999
86	62
99	122
100	8
128	16
129	22
