Mass spectrum: TRANS-1-PROPENE-1,2,3-TRICARBOXYLIC ACID TRI(TRIMETHYLSILYL) ESTER; EI-MS
Name: TRI(TRIMETHYLSILYL) TRANS-1-PROPENE-1,2,3-TRICARBOXYLATE
Formula: C15H30O6Si3
Exact mass: 390.13502
Instrument type: EI-MS
m/z	relative intensity
43	185
44	355
45	429
47	21
49	142
59	46
61	52
63	5
65	48
66	46
67	72
73	72
74	76
75	999
76	62
77	94
78	54
79	52
81	42
92	5
93	119
95	70
97	66
117	5
131	46
133	44
141	46
147	31
148	54
149	50
211	50
229	52
