Mass spectrum: DIMETHOXYMETHANE; EI-MS
Name: FORMALDEHYDE DIMETHYL ACETAL
Formula: C3H8O2
Exact mass: 76.05243
Instrument type: EI-MS
m/z	relative intensity
14	34
15	338
29	287
30	12
31	83
44	24
45	999
46	16
47	33
75	408
76	11
