Mass spectrum: ISOAMYL TIGLATE; EI-MS
Name: 3-METHYLBUTYL 2-METHYL-2-BUTENOATE
Formula: C10H18O2
Exact mass: 170.13068
Instrument type: EI-MS
m/z	relative intensity
26	13
27	256
29	284
32	16
39	215
41	221
42	122
43	344
44	10
45	19
51	22
52	13
53	106
54	82
55	999
56	69
57	26
69	33
70	904
71	99
82	32
83	894
84	58
85	32
99	10
100	70
101	428
102	22
