Mass spectrum: GENIPIN DIACETATE; EI-MS
Formula: C15H18O7
Exact mass: 310.10525
Instrument type: EI-MS
m/z	relative intensity
14	17
15	153
27	54
29	50
31	14
39	90
40	18
41	67
42	33
43	999
44	53
45	26
50	14
51	60
52	37
53	72
54	11
55	41
59	58
61	13
63	24
65	90
66	28
67	32
68	22
69	23
71	17
77	139
78	300
79	115
80	35
81	79
82	35
83	13
89	27
90	31
91	268
92	55
93	29
94	18
95	35
96	24
97	16
98	20
99	16
102	18
103	57
104	25
105	39
106	24
107	44
108	21
109	18
115	18
117	12
118	28
119	151
120	220
121	88
122	13
123	12
124	10
127	11
130	34
131	74
132	17
133	12
135	26
136	13
137	15
138	10
139	47
140	12
145	11
146	37
147	340
148	364
149	83
150	15
151	24
152	11
158	40
159	49
161	17
162	231
163	41
164	13
165	17
175	96
176	193
178	19
179	174
180	73
181	11
189	32
190	480
191	185
192	26
195	11
204	18
207	27
208	26
237	14
250	167
251	32
279	17
