Mass spectrum: DIMETHYL SUCCINATE; EI-MS
Formula: C6H10O4
Exact mass: 146.05791
Instrument type: EI-MS
m/z	relative intensity
15	20
26	13
27	40
29	29
31	16
41	14
42	20
43	15
45	42
55	413
56	46
57	43
59	337
87	142
114	265
115	999
116	63
