Mass spectrum: PENTANETHIOL; EI-MS
Formula: C5H12S
Exact mass: 104.06597
Instrument type: EI-MS
m/z	relative intensity
15	27
26	43
27	273
28	32
29	259
33	11
35	45
39	196
40	47
41	397
42	999
43	202
45	108
46	58
47	235
49	26
51	12
53	36
55	456
56	48
57	42
58	15
59	43
60	32
61	134
62	25
69	36
70	380
71	47
104	340
105	28
106	14
