Mass spectrum: DIMETHYLHYDRAZONE FORMALDEHYDE; EI-MS
Name: FORMALDEHYDE DIMETHYLHYDRAZONE
Formula: C3H8N2
Exact mass: 72.06875
Instrument type: EI-MS
m/z	relative intensity
27	88
28	22
29	43
30	36
40	34
41	50
42	978
43	19
44	42
57	266
58	7
71	52
72	999
73	46
