Mass spectrum: TARTARIC ACID-TETRA-TMS; EI-MS
Formula: C16H38O6Si4
Exact mass: 438.17455
Instrument type: EI-MS
m/z	relative intensity
40	999
41	43
42	36
43	8
44	311
45	62
46	6
47	3
48	3
50	3
51	4
52	1
53	3
54	3
55	16
56	1
57	8
58	7
59	87
60	1
61	9
65	3
66	7
67	1
69	4
70	6
71	4
72	1
73	251
74	21
75	254
76	2
77	24
78	8
79	5
81	1
82	3
83	6
84	4
85	0
87	3
89	5
91	6
93	1
94	3
95	5
97	3
101	1
102	5
103	7
104	3
105	1
107	8
108	9
109	5
115	1
116	4
117	8
118	3
119	0
121	3
122	3
128	3
129	0
130	4
131	6
132	3
133	1
134	3
135	7
141	3
143	1
145	4
147	93
148	6
149	1
151	3
156	3
165	4
171	0
175	3
177	3
178	3
189	2
190	4
191	6
204	7
205	0
207	4
217	6
218	5
219	3
220	7
221	10
222	3
231	0
233	5
235	3
257	3
263	0
277	5
279	5
292	37
293	1
294	9
305	9
306	4
307	1
309	19
327	6
333	5
404	1
405	9
406	4
407	3
422	0
423	9
424	3
