Mass spectrum: BUTYL META TOLUATE; EI-MS
Name: META TOLUIC ACID BUTYL ESTER
Formula: C12H16O2
Exact mass: 192.11503
Instrument type: EI-MS
m/z	relative intensity
27	23
29	57
39	50
41	74
51	13
55	23
56	92
57	11
63	23
65	147
77	11
89	31
90	25
91	541
92	98
93	64
118	12
119	999
120	95
135	11
136	780
137	351
138	27
192	38
193	4
