Mass spectrum: N-(ACETYLAMINO)CARBONYL-2-BROMO-2-ETHYL-BUTANAMIDE; EI-MS
Formula: C9H15BrN2O3
Exact mass: 278.0266
Instrument type: EI-MS
m/z	relative intensity
37	30
38	148
39	410
40	24
41	999
42	225
43	925
44	44
45	22
46	13
47	1
48	0
49	15
50	40
51	60
52	6
53	281
54	160
55	387
56	7
57	48
58	9
59	229
60	3
61	13
62	15
63	22
64	2
65	29
66	31
67	213
68	14
69	469
70	257
71	131
72	7
73	10
74	3
75	3
77	1
78	13
79	49
80	104
81	5
82	109
83	69
84	26
85	5
86	49
87	66
88	9
91	1
92	7
93	7
94	11
95	1
96	145
97	116
98	191
99	4
100	10
101	1
102	5
103	3
104	3
105	3
107	8
109	1
110	10
111	29
112	38
113	13
114	38
115	11
124	19
125	0
126	3
127	21
128	12
129	5
130	10
131	1
133	3
135	0
139	37
140	31
141	10
142	0
144	1
149	3
150	24
151	2
152	22
153	10
155	9
156	0
157	5
165	25
167	29
168	0
169	5
170	6
171	1
172	1
176	2
177	1
178	4
179	0
183	12
185	3
191	13
193	1
208	3
210	7
218	1
219	0
248	9
249	1
250	9
