Mass spectrum: 3-METHYL-4-PENTEN-1-OL; EI-MS
Formula: C6H12O
Exact mass: 100.08882
Instrument type: EI-MS
m/z	relative intensity
28	135
29	303
32	28
41	74
42	329
55	831
56	406
67	999
69	279
82	346
