Mass spectrum: TRIS(PENTAFLUOROPHENYL)-CARBINOL; EI-MS
Formula: C19HF15O
Exact mass: 529.97879
Instrument type: EI-MS
m/z	relative intensity
28	41
31	110
69	30
74	2
75	38
79	46
80	24
84	2
86	19
93	115
98	65
99	2
100	16
110	10
117	290
118	1
124	13
129	11
137	60
148	5
149	38
167	360
168	420
169	3
181	13
195	999
196	82
265	1
296	11
343	10
362	220
363	6
364	9
530	6
531	1
