Mass spectrum: DI-ISOPROPYLMETHYLSILANE; EI-MS
Formula: C7H18Si
Exact mass: 130.11778
Instrument type: EI-MS
m/z	relative intensity
42	12
43	87
45	183
58	84
59	999
60	78
61	39
71	17
72	11
73	34
74	11
86	114
87	276
88	30
89	10
130	62
