Mass spectrum: N-HEXYLACETAMIDE; EI-MS
Formula: C8H17NO
Exact mass: 143.13101
Instrument type: EI-MS
m/z	relative intensity
14	16
15	92
27	65
28	5
29	63
30	999
31	30
39	4
41	92
42	48
43	439
44	15
45	123
55	44
56	38
58	5
60	179
72	297
73	230
86	9
87	38
100	88
101	25
114	5
128	22
143	81
144	17
