Mass spectrum: TETRADECANAL; EI-MS
Formula: C14H28O
Exact mass: 212.21402
Instrument type: EI-MS
m/z	relative intensity
39	190
40	65
41	999
42	197
43	796
44	287
45	91
53	71
54	112
55	592
56	233
57	752
58	66
66	76
67	318
68	286
69	327
70	181
71	245
72	59
81	261
82	469
83	221
84	106
85	98
95	200
96	293
97	162
98	48
99	36
109	87
110	88
111	75
123	41
124	61
125	36
138	52
168	39
