Mass spectrum: BUTYL 2-AMINOBENZOATE; EI-MS
Name: BUTYL ANTHRANILATE
Formula: C11H15NO2
Exact mass: 193.11028
Instrument type: EI-MS
m/z	relative intensity
27	75
29	101
38	12
39	105
41	91
42	10
52	32
55	12
57	13
63	35
64	47
65	238
66	34
90	13
91	56
92	312
93	59
119	999
120	340
121	30
137	292
138	25
193	361
194	45
