Mass spectrum: PHENANTHRENE; EI-MS
Formula: C14H10
Exact mass: 178.07825
Instrument type: EI-MS
m/z	relative intensity
39	14
50	13
51	11
62	8
63	18
74	15
75	15
76	15
86	6
87	12
88	9
89	15
98	7
99	7
126	11
139	10
150	32
151	35
152	54
153	8
174	10
175	12
176	101
177	71
178	999
179	157
180	15
182	22
