Mass spectrum: BIPHENYL; EI-MS
Formula: C12H10
Exact mass: 154.07825
Instrument type: EI-MS
m/z	relative intensity
51	64
63	58
64	67
76	181
77	96
115	49
126	29
127	33
128	35
151	75
152	249
153	365
154	999
155	134
