Mass spectrum: 3,5-DIMETHYLPYRIDINE; EI-MS
Formula: C7H9N
Exact mass: 107.0735
Instrument type: EI-MS
m/z	relative intensity
26	33
27	160
28	78
29	3
37	49
38	112
39	373
40	7
41	62
42	28
49	20
50	7
51	156
52	92
53	103
54	4
61	28
62	30
63	56
64	3
65	78
66	79
67	42
68	3
74	25
75	23
76	20
77	16
78	84
79	353
80	88
81	4
91	29
92	209
93	20
104	3
105	58
106	491
107	999
108	79
