Mass spectrum: BENZOIC ACID PHENYL ESTER; EI-MS
Name: PHENYL BENZOATE
Formula: C13H10O2
Exact mass: 198.06808
Instrument type: EI-MS
m/z	relative intensity
39	34
50	26
51	109
65	17
77	370
78	20
105	999
106	71
198	64
