Mass spectrum: DIMETHOXY METHANE; EI-MS
Formula: C3H8O2
Exact mass: 76.05243
Instrument type: EI-MS
m/z	relative intensity
14	34
15	338
29	287
31	83
44	24
45	999
47	33
75	408
