Mass spectrum: 2-TRIMETHYLSILYLTHIOBENZOIC ACID TRIMETHYLSILYL ESTER; EI-MS
Formula: C13H22O2SSi2
Exact mass: 298.0879
Instrument type: EI-MS
m/z	relative intensity
43	31
44	27
45	121
59	1
69	13
73	470
74	45
91	3
93	24
105	10
131	10
133	1
147	999
148	156
149	97
151	5
283	637
284	160
285	90
286	1
298	10
