Mass spectrum: 2-PICOLINE; EI-MS
Name: 2-METHYLPYRIDINE
Formula: C6H7N
Exact mass: 93.05785
Instrument type: EI-MS
m/z	relative intensity
25	24
26	28
27	35
37	25
38	54
39	125
40	56
41	23
42	17
46	11
49	10
50	73
51	115
52	77
53	39
54	17
61	21
62	41
63	79
64	44
65	145
66	393
67	97
78	144
79	11
91	18
92	204
93	999
94	106
