Mass spectrum: ORTHO BROMOTOLUENE; EI-MS
Formula: C7H7Br
Exact mass: 169.97311
Instrument type: EI-MS
m/z	relative intensity
38	28
39	111
41	13
43	11
45	23
50	55
51	46
61	18
62	47
63	117
64	25
65	238
89	115
90	84
91	999
92	71
169	35
170	469
171	69
172	453
173	29
