Mass spectrum: BUTYL OCTANOATE; EI-MS
Formula: C12H24O2
Exact mass: 200.17763
Instrument type: EI-MS
m/z	relative intensity
26	12
27	179
29	366
31	16
39	107
41	530
42	112
43	285
45	19
53	22
54	16
55	271
56	999
57	720
58	21
59	12
60	285
61	115
67	22
69	46
70	18
71	14
73	209
74	21
82	14
83	47
84	36
85	18
86	10
87	53
89	38
97	22
98	21
101	116
103	20
109	16
115	25
116	51
117	10
125	11
127	482
128	34
129	27
144	38
145	543
146	40
