Mass spectrum: 1-METHYL-1-PHENYLHYDRAZINE; EI-MS
Formula: C7H10N2
Exact mass: 122.0844
Instrument type: EI-MS
m/z	relative intensity
14	13
15	82
16	23
17	15
18	31
26	24
27	69
28	129
29	99
30	40
37	28
38	65
39	146
40	21
41	18
42	19
43	46
44	15
45	29
50	162
51	324
52	106
53	41
54	14
61	24
62	30
63	90
64	62
65	117
66	39
73	13
74	59
75	39
76	42
77	999
78	271
79	259
80	35
90	16
91	64
92	71
93	78
94	18
104	122
105	108
106	484
107	813
108	70
120	21
121	99
122	923
123	86
