Mass spectrum: CHALCONE; EI-MS
Formula: C15H12O
Exact mass: 208.08882
Instrument type: EI-MS
m/z	relative intensity
50	45
51	200
63	30
75	27
76	69
77	662
78	50
89	82
90	40
102	90
103	364
104	45
105	339
106	30
130	125
131	435
132	43
165	74
178	84
179	160
180	56
207	999
208	914
209	136
