Mass spectrum: HEXAMETHYLDISILAZANE; EI-MS
Formula: C6H19NSi2
Exact mass: 161.1056
Instrument type: EI-MS
m/z	relative intensity
75	11
130	59
131	10
146	999
147	858
148	180
149	60
161	61
162	10
