Mass spectrum: BENZIL; EI-MS
Formula: C14H10O2
Exact mass: 210.06808
Instrument type: EI-MS
m/z	relative intensity
77	96
105	999
106	61
210	36
