Mass spectrum: 5-PHENYL-3-STYRYL-2-ISOXAZOLINE; EI-MS
Formula: C17H15NO
Exact mass: 249.11536
Instrument type: EI-MS
m/z	relative intensity
38	316
50	243
51	624
52	163
62	79
63	246
64	81
65	249
74	75
75	124
76	190
77	999
78	449
87	51
89	297
90	57
91	553
92	48
101	56
102	253
103	415
104	429
105	229
115	807
116	122
127	76
128	200
129	48
130	232
139	45
141	64
142	46
143	195
248	178
249	104
