Mass spectrum: 5-ACETYLPYRIMIDINE; EI-MS
Formula: C6H6N2O
Exact mass: 122.04801
Instrument type: EI-MS
m/z	relative intensity
37	17
38	22
39	29
40	1
42	37
43	403
44	10
50	1
51	64
52	264
53	166
79	52
80	83
107	999
108	67
122	66
123	56
