Mass spectrum: BIS(2-CHLOROETHOXY)METHANE; EI-MS
Formula: C5H10Cl2O2
Exact mass: 172.00578
Instrument type: EI-MS
m/z	relative intensity
43	28
44	38
49	45
61	2
62	32
63	687
65	221
93	999
94	34
95	304
96	21
106	5
123	249
125	72
171	30
