Mass spectrum: ISOPROPYL ISOPENTANOATE; EI-MS
Name: ISOPROPYL ISOVALERATE
Formula: C8H16O2
Exact mass: 144.11503
Instrument type: EI-MS
m/z	relative intensity
15	44
26	12
27	271
29	149
31	17
38	12
39	248
40	26
41	594
42	186
43	999
44	37
45	71
55	40
56	57
57	642
58	31
59	277
60	693
61	104
69	29
85	892
86	51
87	206
101	11
102	344
103	335
104	16
129	41
