Mass spectrum: 2,3-DIMETHYLPYRIDINE; EI-MS
Formula: C7H9N
Exact mass: 107.0735
Instrument type: EI-MS
m/z	relative intensity
26	88
27	185
28	87
29	3
31	29
37	55
38	72
39	47
40	100
41	52
42	68
49	3
50	86
51	135
52	84
53	5
54	30
61	22
62	31
63	10
64	47
65	189
66	215
67	5
68	32
74	21
75	28
76	3
77	79
78	40
79	189
80	7
81	25
91	34
92	191
93	3
104	32
105	59
106	584
107	999
108	84
