Mass spectrum: 1-BUTYL-1-METHYLHYDRAZINE; EI-MS
Formula: C5H14N2
Exact mass: 102.1157
Instrument type: EI-MS
m/z	relative intensity
27	71
29	111
30	108
31	15
39	31
40	78
41	61
42	20
43	79
44	105
45	85
46	2
55	12
56	16
57	45
58	1
59	999
60	32
71	77
72	1
102	153
103	10
