Mass spectrum: METHYL 2-OXO-4-PHENYLBUTANOATE; EI-MS
Formula: C11H12O3
Exact mass: 192.07864
Instrument type: EI-MS
m/z	relative intensity
39	31
50	17
51	70
59	2
63	25
65	70
77	131
78	4
79	78
91	999
92	76
103	16
104	150
105	844
106	78
131	4
133	400
134	33
174	121
192	20
193	23
