Mass spectrum: 1-METHOXYHEXADECANE; EI-MS
Formula: C17H36O
Exact mass: 256.27662
Instrument type: EI-MS
m/z	relative intensity
15	7
27	21
29	96
31	10
33	21
36	1
39	15
40	0
41	273
42	96
43	546
45	999
46	26
53	13
54	71
55	586
56	416
57	609
58	32
59	14
60	1
66	9
67	107
68	433
69	734
70	486
71	327
72	19
74	3
75	3
79	6
80	6
81	61
82	512
83	842
84	396
85	109
86	16
87	21
93	4
95	33
96	165
97	738
98	270
99	53
100	4
101	8
109	9
110	77
111	430
112	197
113	35
123	8
124	47
125	225
126	130
127	20
129	0
137	6
138	31
139	81
140	86
141	16
152	19
153	43
154	68
155	18
166	10
167	26
168	57
169	9
180	5
181	12
182	14
194	5
195	7
196	145
197	23
209	2
213	11
224	220
225	38
