Mass spectrum: 17BETA-ESTRADIOL; EI-MS
Formula: C18H24O2
Exact mass: 272.17763
Instrument type: EI-MS
m/z	relative intensity
55	86
77	68
91	81
105	58
107	104
115	7
121	62
127	60
131	83
133	18
144	73
145	143
146	233
147	8
157	96
158	101
159	192
160	27
171	57
172	227
173	63
185	7
186	120
213	292
214	58
272	999
273	207
