Mass spectrum: 4-CHLORO-1-BUTENE; EI-MS
Formula: C4H7Cl
Exact mass: 90.02363
Instrument type: EI-MS
m/z	relative intensity
26	16
27	106
28	35
29	4
39	76
41	207
49	57
51	2
53	35
54	108
55	999
56	4
61	11
62	157
63	65
64	6
65	16
75	65
77	25
90	27
91	16
92	91
