Mass spectrum: 2-ETHYLBUTYRIC ACID; EI-MS
Formula: C6H12O2
Exact mass: 116.08373
Instrument type: EI-MS
m/z	relative intensity
15	33
26	41
27	439
28	36
29	346
31	24
38	23
39	309
40	34
41	445
42	67
43	931
44	28
45	200
51	16
53	36
54	11
55	245
56	21
57	21
59	20
60	23
68	18
69	88
70	38
71	229
72	12
73	717
74	31
87	344
88	999
89	41
101	45
