Mass spectrum: PARA-FLUOROBENZOIC ACID ETHYL ESTER; EI-MS
Name: ETHYL PARA-FLUOROBENZOATE
Formula: C9H9FO2
Exact mass: 168.05866
Instrument type: EI-MS
m/z	relative intensity
27	30
28	104
29	38
32	21
45	33
50	29
51	18
68	12
69	22
74	12
75	132
76	11
94	22
95	366
96	28
123	999
124	90
140	278
141	27
153	12
167	11
168	83
169	11
