Mass spectrum: TRIPHENYL PHOSPHATE; EI-MS
Formula: C18H15O4P
Exact mass: 326.0708
Instrument type: EI-MS
m/z	relative intensity
47	28
50	28
51	152
62	34
63	25
65	223
66	24
77	37
78	28
93	42
94	102
140	3
141	44
152	25
168	52
169	9
170	131
215	98
228	64
229	3
232	65
233	135
249	35
325	55
326	999
327	196
328	31
