Mass spectrum: DI-ISOBUTYL PHTHALATE; EI-MS
Formula: C16H22O4
Exact mass: 278.15181
Instrument type: EI-MS
m/z	relative intensity
43	150
50	40
51	17
54	20
55	69
56	261
57	17
65	5
75	13
76	85
77	19
93	2
104	97
105	24
121	29
122	1
132	20
149	999
150	109
151	1
167	41
205	38
223	172
224	2
278	20
