Mass spectrum: DIETHYL MALEATE; EI-MS
Name: CIS-BUTENEDIOIC ACID DIETHYL ESTER
Formula: C8H12O4
Exact mass: 172.07356
Instrument type: EI-MS
m/z	relative intensity
15	11
26	57
27	126
28	26
29	196
31	25
43	33
44	28
45	63
53	27
54	71
55	78
71	49
72	22
81	16
82	71
98	13
99	999
100	123
125	16
126	126
127	294
128	62
143	23
145	10
