Mass spectrum: BENZYL CYANIDE; EI-MS
Name: PHENYLACETONITRILE
Formula: C8H7N
Exact mass: 117.05785
Instrument type: EI-MS
m/z	relative intensity
18	11
26	21
27	33
28	30
29	21
31	35
32	26
37	24
38	49
39	97
40	23
41	11
49	10
50	90
51	121
52	29
59	13
61	27
62	59
63	127
64	44
65	44
74	29
75	25
76	23
77	62
78	17
86	12
87	17
88	24
89	211
90	367
91	85
116	346
117	999
118	92
