Mass spectrum: CYCLOHEXANECARBOXYLIC ACID TRIMETHYLSILYLESTER; EI-MS
Name: TRIMETHYLSILYL CYCLOHEXANECARBOXYLATE
Formula: C10H20O2Si
Exact mass: 200.12326
Instrument type: EI-MS
m/z	relative intensity
45	231
55	84
57	62
58	6
73	999
74	79
75	413
77	6
117	69
185	249
186	59
