Mass spectrum: P-CRESYL FORMATE; EI-MS
Formula: C8H8O2
Exact mass: 136.05243
Instrument type: EI-MS
m/z	relative intensity
26	22
27	118
29	177
37	11
38	26
39	142
40	12
41	11
49	10
50	104
51	181
52	103
53	114
55	21
61	12
62	27
63	72
64	16
65	58
74	16
77	296
78	98
79	212
80	74
81	13
89	24
90	86
91	58
106	11
107	999
108	851
109	69
136	345
137	25
