Mass spectrum: ISOPENTYL SALICYLATE; EI-MS
Formula: C12H16O3
Exact mass: 208.10994
Instrument type: EI-MS
m/z	relative intensity
27	86
29	53
38	16
39	171
41	159
42	43
43	434
53	36
55	143
63	54
64	59
65	188
66	14
69	17
70	211
71	112
81	14
92	189
93	82
120	999
121	374
122	25
138	365
139	76
208	191
209	21
