Mass spectrum: DIISOBUTYL ETHER; EI-MS
Formula: C8H18O
Exact mass: 130.13577
Instrument type: EI-MS
m/z	relative intensity
15	12
27	77
28	16
29	185
31	17
39	70
40	13
41	279
42	33
43	47
44	11
45	26
55	25
56	54
57	999
58	47
59	20
73	13
87	106
88	11
130	48
