Mass spectrum: (6-BROMO-(E)-1-HEXENYL)BENZENE; EI-MS
Formula: C12H15Br
Exact mass: 238.03571
Instrument type: EI-MS
m/z	relative intensity
28	193
32	31
43	53
53	2
58	31
65	20
77	36
78	2
80	27
82	24
91	419
92	2
102	13
103	62
104	26
105	2
115	359
116	162
117	732
118	8
127	80
128	163
129	390
130	42
131	999
132	102
199	256
210	26
211	26
212	265
213	33
