Mass spectrum: (E)-3-PHENYL-2-PROPENAL; EI-MS
Name: TRANS-CINNAMALDEHYDE
Formula: C9H8O
Exact mass: 132.05751
Instrument type: EI-MS
m/z	relative intensity
26	16
27	52
28	30
29	28
37	13
38	28
39	80
49	13
50	150
51	368
51.5	23
52	101
53	17
54	17
55	17
61	16
62	36
63	82
64	11
65	15
65.5	13
66	25
73	11
74	70
75	63
76	79
77	451
78	320
79	19
87	10
89	14
91	27
98	11
101	18
102	99
103	560
104	312
105	35
115	11
130	14
131	999
132	932
133	92
