Mass spectrum: ZAPOTIN; EI-MS
Formula: C19H18O6
Exact mass: 342.11034
Instrument type: EI-MS
m/z	relative intensity
41	100
42	30
43	140
44	14
45	70
50	30
51	30
53	1
54	30
55	80
56	30
57	1
59	30
60	50
61	30
62	0
63	50
65	50
66	30
67	1
68	30
69	70
70	30
71	1
73	30
74	30
76	50
77	1
78	50
79	50
81	50
82	0
83	50
91	50
94	30
95	0
97	30
105	30
107	30
109	1
119	30
121	30
131	30
135	1
136	30
137	200
147	30
148	1
149	50
150	30
151	30
161	0
162	30
166	160
180	30
253	1
266	30
267	30
269	30
282	0
283	30
284	30
295	30
297	1
298	30
299	30
309	30
311	1
312	110
313	110
314	30
325	0
327	999
328	210
329	30
341	0
342	570
343	130
