Mass spectrum: 2-METHYLINDOLE; EI-MS
Formula: C9H9N
Exact mass: 131.0735
Instrument type: EI-MS
m/z	relative intensity
27	51
28	29
38	37
39	80
50	64
51	107
63	76
65	110
65.5	30
77	149
89	44
102	49
103	103
104	30
131	786
132	76
