Mass spectrum: HEXANE; EI-MS
Formula: C6H14
Exact mass: 86.10955
Instrument type: EI-MS
m/z	relative intensity
40	450
42	298
43	589
53	12
55	60
56	457
57	999
58	47
70	13
71	82
86	197
87	14
