Mass spectrum: 5-METHOXY-2,3-DIMETHYL-1-(2-(6-METHYL-3-PYRIDYL)ETHYL)INDOLE; EI-MS
Formula: C19H22N2O
Exact mass: 294.17321
Instrument type: EI-MS
m/z	relative intensity
57	12
105	11
106	21
128	1
130	10
144	13
145	150
173	3
188	999
189	100
294	256
