Mass spectrum: ORTHO CHLORO ISOBUTYLBENZOATE; EI-MS
Formula: C11H13ClO2
Exact mass: 212.06041
Instrument type: EI-MS
m/z	relative intensity
27	39
29	71
39	45
41	132
43	33
44	18
50	66
51	32
55	33
56	611
57	54
73	20
74	28
75	187
76	50
77	24
111	293
112	23
113	111
139	999
140	75
141	328
142	29
155	13
156	75
157	260
158	42
159	83
