Mass spectrum: 2,5-DIMETHYL-4-(4-METHYLBENZYL)PYRIDINE; EI-MS
Formula: C15H17N
Exact mass: 211.1361
Instrument type: EI-MS
m/z	relative intensity
29	55
30	18
31	17
38	1
39	106
40	63
41	63
42	6
43	296
45	16
50	13
51	5
52	27
53	38
54	12
55	3
56	12
57	14
58	76
63	3
64	13
65	57
66	12
67	2
68	11
69	13
75	10
76	2
77	150
78	64
79	83
80	2
81	11
82	19
83	13
835	1
89	23
90	17
905	19
91	1
92	19
93	20
965	17
100	1
101	16
102	16
103	47
104	4
104.5	26
105	180
106	27
115	6
116	13
117	14
118	68
119	999
120	110
127	10
128	55
129	3
139	17
141	27
142	10
143	1
151	15
152	59
153	56
154	3
155	35
156	13
165	37
166	2
167	22
168	13
169	15
178	1
179	10
180	49
181	150
182	4
183	24
192	10
193	18
194	8
195	85
196	211
197	49
198	5
199	68
200	93
201	56
202	12
204	29
208	14
209	15
210	13
211	554
212	93
