Mass spectrum: MONASCAMINONE METHYL ETHER; EI-MS
Formula: C23H31NO2
Exact mass: 353.23548
Instrument type: EI-MS
m/z	relative intensity
354	240
353	880
228	180
227	999
226	350
213	150
212	730
210	190
198	160
197	150
196	90
182	70
181	120
180	60
168	50
167	50
127	70
