Mass spectrum: 1-TRIMETHYLSILOXYCYCLOPENTENE; EI-MS
Formula: C8H16OSi
Exact mass: 156.09704
Instrument type: EI-MS
m/z	relative intensity
42	53
43	54
45	146
47	45
55	75
57	39
59	100
61	34
63	29
67	34
70	47
71	39
73	818
74	75
75	999
76	72
77	44
85	29
99	51
127	40
141	201
155	462
156	451
157	80
