Mass spectrum: 4-(3-(4-(2-HYDROXYETHOXY)PHENOXY)PROPYL)MORPHORINE; EI-MS
Formula: C15H23NO4
Exact mass: 281.16271
Instrument type: EI-MS
m/z	relative intensity
41	9
42	21
43	467
57	25
61	42
70	129
71	47
84	27
85	32
97	2
98	40
100	999
101	46
109	22
111	27
113	21
128	602
129	46
281	30
