Mass spectrum: MONASCORUBRIN; EI-MS
Formula: C23H26O5
Exact mass: 382.17802
Instrument type: EI-MS
m/z	relative intensity
382	90
339	80
299	180
298	999
283	200
257	110
256	560
255	340
215	380
213	380
200	190
