Mass spectrum: ISOPROPYL BENZOATE; EI-MS
Formula: C10H12O2
Exact mass: 164.08373
Instrument type: EI-MS
m/z	relative intensity
15	18
27	79
28	39
38	2
39	57
41	98
42	27
43	18
50	68
51	209
52	16
59	25
60	10
74	16
75	14
76	3
77	418
78	52
79	43
115	999
116	113
117	22
146	20
149	2
164	167
1650	210
