Mass spectrum: DI-N-PROPYL ETHER; EI-MS
Formula: C6H14O
Exact mass: 102.10447
Instrument type: EI-MS
m/z	relative intensity
15	38
17	28
18	40
26	4
27	229
28	45
29	84
31	6
39	76
40	29
41	182
42	4
43	999
44	45
45	33
55	3
57	28
59	42
73	160
102	74
