Mass spectrum: PARA-BUTOXYPHENOL; EI-MS
Formula: C10H14O2
Exact mass: 166.09938
Instrument type: EI-MS
m/z	relative intensity
27	32
29	80
39	36
41	4
53	23
54	21
55	23
57	2
65	20
81	28
82	16
93	2
109	31
110	999
111	62
123	1
166	162
167	18
