Mass spectrum: BENZENESULFONYL CHLORIDE; EI-MS
Formula: C6H5ClO2S
Exact mass: 175.96988
Instrument type: EI-MS
m/z	relative intensity
27	11
36	54
38	26
39	27
50	110
51	284
52	11
64	17
65	14
74	29
75	17
76	19
77	999
78	78
141	361
142	27
143	14
176	87
178	29
