Mass spectrum: TRIPROPYL BORATE; EI-MS
Formula: C9H21BO3
Exact mass: 188.15838
Instrument type: EI-MS
m/z	relative intensity
27	180
28	60
29	70
31	15
39	80
41	310
42	110
43	999
44	130
45	490
55	50
56	1
57	70
58	80
59	120
87	8
101	100
103	230
104	30
117	5
129	270
145	130
146	60
159	4
173	140
187	60
188	110
