Mass spectrum: 3-TERT-BUTYLPHENOL; EI-MS
Formula: C10H14O
Exact mass: 150.10447
Instrument type: EI-MS
m/z	relative intensity
15	31
27	52
28	28
29	30
38	10
39	105
40	14
41	85
43	15
50	16
51	50
52	19
53	30
55	19
57	20
63	41
64	14
65	75
66	25
75	13
77	127
78	37
79	65
89	30
90	15
91	213
92	25
94	22
95	46
102	12
103	20
105	32
107	889
108	104
109	13
115	139
116	35
117	17
119	27
120	11
121	24
122	21
133	17
134	16
135	999
136	104
150	433
151	49
