Mass spectrum: 2-METHOXYBENZOIC ACID METHYL ESTER; EI-MS
Formula: C9H10O3
Exact mass: 166.06299
Instrument type: EI-MS
m/z	relative intensity
50	68
51	77
63	121
64	11
65	30
76	56
77	445
78	6
79	74
91	34
92	203
93	3
105	155
107	30
120	36
133	35
134	83
135	999
136	85
137	11
151	30
166	349
167	36
