Mass spectrum: PHENYL 2-PYRIDYL KETONE; EI-MS
Formula: C12H9NO
Exact mass: 183.06841
Instrument type: EI-MS
m/z	relative intensity
27	18
39	21
50	132
51	305
52	36
74	47
75	42
76	10
77	234
78	170
79	36
104	18
105	850
106	80
107	10
154	280
155	999
156	117
182	751
183	791
184	103
185	8
