Mass spectrum: 1,2,4-TRICHLOROBENZENE; EI-MS
Formula: C6H3Cl3
Exact mass: 179.93003
Instrument type: EI-MS
m/z	relative intensity
37	32
50	36
54	30
55	3
72	70
73	72
74	122
75	8
84	54
85	28
90	71
91	6
109	150
110	36
111	55
144	3
145	229
146	38
147	155
149	3
180	999
181	77
182	972
183	7
184	314
185	30
186	39
