Mass spectrum: PHENYLETHYL 2-FUROATE; EI-MS
Formula: C13H12O3
Exact mass: 216.07864
Instrument type: EI-MS
m/z	relative intensity
27	17
38	25
39	170
50	11
51	50
52	11
63	14
65	51
67	14
77	64
78	43
79	24
91	104
95	519
96	24
103	48
104	999
105	123
