Mass spectrum: SANGGENON-C; EI-MS
Formula: C40H36O12
Exact mass: 708.22068
Instrument type: EI-MS
m/z	relative intensity
65	239
66	189
75	70
77	82
79	14
80	51
81	654
82	952
89	71
90	15
92	65
94	111
101	21
103	40
105	16
106	15
107	37
110	999
111	104
115	108
117	28
122	109
123	717
124	17
126	167
127	23
128	54
129	27
134	129
135	103
136	36
137	140
141	17
143	33
144	20
146	17
147	233
148	39
150	301
151	35
152	48
153	72
155	21
156	14
160	46
161	430
162	141
163	274
164	55
173	26
174	19
175	79
176	132
177	115
178	175
179	10
184	24
187	14
190	22
191	25
194	23
197	107
198	15
199	14
200	15
201	37
203	188
204	18
210	25
211	497
212	376
213	157
214	20
217	48
218	106
219	16
225	34
226	15
227	33
229	64
230	16
237	29
239	50
241	30
244	18
245	50
251	13
253	19
255	387
256	308
257	41
258	27
265	11
269	28
274	10
279	11
280	32
285	98
286	18
287	15
302	66
303	35
305	124
306	19
311	10
314	29
315	84
317	33
319	83
320	88
321	23
322	13
323	24
324	26
325	14
326	22
327	85
329	13
333	32
335	19
338	11
339	30
353	526
354	112
355	37
365	47
366	14
368	193
369	47
370	92
371	13
381	16
383	19
388	16
389	11
395	11
401	15
404	19
405	21
419	18
421	255
422	80
423	23
436	115
437	33
438	26
439	11
464	18
516	9
578	6
579	5
580	10
581	10
691	3
