Mass spectrum: L-LEUCINE; EI-MS
Name: (S)-(+)-LEUCINE
Formula: C6H13NO2
Exact mass: 131.09463
Instrument type: EI-MS
m/z	relative intensity
15	26
16	20
17	23
25	26
30	655
38	32
43	33
44	316
49	20
55	32
57	32
74	202
75	46
80	20
82	26
86	999
87	54
89	23
101	24
102	27
110	20
111	20
113	32
114	32
129	29
131	30
132	21
