Mass spectrum: EXO-1-DEUTERIO-TRICYCLO(4.4.1.1(2,5))DODECA-3,7,9-TRIEN-11-ONE; EI-MS
Formula: C12H12O
Exact mass: 172.08882
Instrument type: EI-MS
m/z	relative intensity
51	121
52	90
53	60
54	16
61	19
62	46
63	63
64	30
65	387
66	999
67	62
77	45
78	109
79	147
80	86
81	10
91	11
92	14
95	14
106	35
107	278
108	490
109	320
110	24
115	12
116	15
128	19
129	23
130	13
135	38
150	10
172	22
173	38
174	28
