Mass spectrum: 4-METHYLTHIAZOLE; EI-MS
Formula: C4H5NS
Exact mass: 99.01427
Instrument type: EI-MS
m/z	relative intensity
27	30
39	522
40	18
41	18
45	420
46	99
47	18
52	29
54	30
58	59
59	39
69	18
70	78
71	999
72	826
73	188
74	128
98	100
99	883
100	268
101	10
