Mass spectrum: 2-PENTYL BUTYRATE; EI-MS
Name: 1-METHYLBUTYL BUTYRATE
Formula: C9H18O2
Exact mass: 158.13068
Instrument type: EI-MS
m/z	relative intensity
27	124
29	81
39	72
40	11
41	172
42	102
43	565
44	18
45	38
55	122
60	35
70	218
71	999
72	43
73	24
87	28
88	72
89	136
114	17
115	109
