Mass spectrum: PROPYL 2-FUROATE; EI-MS
Formula: C8H10O3
Exact mass: 154.06299
Instrument type: EI-MS
m/z	relative intensity
26	12
27	84
29	32
37	20
38	70
39	265
41	85
42	21
43	46
53	11
59	28
66	12
67	23
68	35
84	29
95	999
96	93
97	15
112	611
113	181
114	11
154	104
