Mass spectrum: HEXANEDIOIC ACID DIHEXYL ESTER; EI-MS
Name: DIHEXYL ADIPATE
Formula: C18H34O4
Exact mass: 314.24571
Instrument type: EI-MS
m/z	relative intensity
28	20
40	64
42	96
43	471
69	164
70	64
71	44
82	77
83	147
84	182
85	143
87	287
97	81
98	29
100	115
101	120
111	259
112	55
128	31
129	999
130	62
171	22
184	116
213	531
214	63
231	17
