Mass spectrum: 2,5-DIMETHYLHYDROQUINONE; EI-MS
Formula: C8H10O2
Exact mass: 138.06808
Instrument type: EI-MS
m/z	relative intensity
39	339
40	252
68	429
79	17
123	798
136	549
137	377
138	999
