Mass spectrum: N-ACETYL-GLYCINE METHYLESTER; EI-MS
Formula: C5H9NO3
Exact mass: 131.05824
Instrument type: EI-MS
m/z	relative intensity
14	27
15	239
27	12
28	13
29	51
30	999
31	20
33	2
42	72
43	493
44	28
45	2
55	11
56	45
57	11
59	2
72	323
73	14
88	30
89	6
99	119
100	31
131	37
