Mass spectrum: 4-METHOXYACETOPHENONE; EI-MS
Formula: C9H10O2
Exact mass: 150.06808
Instrument type: EI-MS
m/z	relative intensity
40	10
41	15
42	25
43	18
49	18
50	95
51	85
52	5
53	35
61	25
62	45
63	10
64	95
65	28
74	31
75	3
76	45
77	290
78	56
79	3
91	20
92	195
93	20
104	3
105	25
106	23
107	132
108	3
119	18
120	25
121	27
135	999
136	92
150	405
151	50
