Mass spectrum: 3-METHYL-2-PENTANONE; EI-MS
Formula: C6H12O
Exact mass: 100.08882
Instrument type: EI-MS
m/z	relative intensity
15	55
27	86
28	23
29	294
31	41
39	55
41	313
42	30
43	999
44	28
45	35
55	34
56	109
57	327
58	14
72	201
73	11
85	33
100	56
101	11
