Mass spectrum: EXO-7-METHYL-ENDO-7-(3-(TERT-BUTHYLDIMETHYLSILOXY)PROPYL)BICYCLO(4.1.0)HEPT-2-ENE; EI-MS
Formula: C17H32OSi
Exact mass: 280.22224
Instrument type: EI-MS
m/z	relative intensity
75	163
91	154
92	180
100	4
105	75
106	156
107	90
108	6
118	59
119	97
120	139
131	20
132	42
133	150
147	697
148	17
149	45
189	40
221	122
222	4
223	999
224	141
225	58
263	16
264	40
265	36
