Mass spectrum: 3-TRIMETHYLSILYL-2-TRIMETHYLSILOXYPROPENE; EI-MS
Formula: C9H22OSi2
Exact mass: 202.12092
Instrument type: EI-MS
m/z	relative intensity
57	15
72	19
73	213
74	20
75	53
114	27
115	41
129	23
147	999
148	171
149	82
163	18
202	105
203	21
