Mass spectrum: 1,3-DIAMINOPROPANE; EI-MS
Formula: C3H10N2
Exact mass: 74.0844
Instrument type: EI-MS
m/z	relative intensity
15	31
17	44
18	316
26	10
27	35
28	161
29	39
30	999
31	29
39	11
40	12
41	27
42	71
43	38
44	160
45	104
54	11
56	241
57	715
58	30
