Mass spectrum: 1,8-DIACETYL-3A,8A-DIMETHYL-2,3,3A,8A-TETRAHYDROPYRROLO(2,3-B)INDOLE; EI-MS
Formula: C16H20N2O2
Exact mass: 272.15248
Instrument type: EI-MS
m/z	relative intensity
26	31
27	84
29	41
30	5
39	62
40	31
41	98
42	10
43	385
50	16
51	36
52	2
53	24
54	22
55	64
56	3
57	26
58	26
60	15
63	2
64	14
65	31
66	12
67	2
68	16
69	22
70	18
75	2
76	23
77	88
78	35
79	3
80	14
81	22
82	23
83	2
86	24
89	26
90	16
91	8
92	20
93	15
94	18
95	2
96	31
97	16
100	14
101	2
102	35
103	49
104	18
105	2
106	15
115	118
116	49
117	5
118	29
119	12
127	27
128	5
129	42
130	153
131	53
132	4
141	14
142	35
143	118
144	66
145	999
146	156
147	22
154	2
155	23
156	78
157	73
158	31
159	68
160	18
167	12
168	2
169	20
170	59
171	75
172	7
173	63
174	15
182	11
183	1
184	19
185	26
186	22
187	5
188	19
212	11
213	11
215	32
216	57
230	592
231	98
239	1
272	41
