Mass spectrum: 4-METHYLBENZOIC ACID METHYL ESTER; EI-MS
Formula: C9H10O2
Exact mass: 150.06808
Instrument type: EI-MS
m/z	relative intensity
44	16
45	22
50	9
51	3
53	16
59	45
61	13
62	1
63	45
65	157
74	22
89	4
90	36
91	416
92	22
106	2
107	6
110	9
118	9
119	999
120	88
133	13
135	9
149	1
150	301
151	26
152	6
