Mass spectrum: PROPYL BENZENE; EI-MS
Formula: C9H12
Exact mass: 120.0939
Instrument type: EI-MS
m/z	relative intensity
27	28
39	75
41	32
50	23
51	58
52	16
62	10
63	34
65	115
77	37
78	73
79	16
89	19
91	999
92	117
103	13
105	42
115	13
120	235
121	23
