Mass spectrum: 2-(3-FORMYL)BUTYL-1,3,3-TRIMETHYLCYCLOHEX-1-ENE; EI-MS
Formula: C14H24O
Exact mass: 208.18272
Instrument type: EI-MS
m/z	relative intensity
15	11
17	15
18	45
26	2
27	252
28	122
29	428
30	1
31	25
32	22
39	263
40	5
41	948
42	98
43	415
44	2
45	17
50	11
51	50
52	3
53	243
54	35
55	584
56	12
57	246
58	22
59	11
63	2
64	11
65	115
66	43
67	38
68	210
69	797
70	71
71	13
77	405
78	90
79	712
80	7
81	836
82	187
83	117
84	1
85	41
86	22
91	285
92	1
93	346
94	302
95	898
96	11
97	60
98	28
99	17
103	2
104	11
105	238
106	44
107	46
108	79
109	424
110	78
111	8
112	19
113	11
115	17
116	1
117	18
119	246
120	45
121	19
122	99
123	999
124	145
125	18
126	22
131	11
133	119
134	4
135	598
136	84
137	159
138	6
139	37
147	62
148	14
149	6
150	405
151	75
152	106
153	2
161	20
162	11
163	11
165	5
166	11
175	313
176	46
179	1
190	39
193	252
194	39
208	29
209	46
