Mass spectrum: BENZOIC ACID; EI-MS
Formula: C7H6O2
Exact mass: 122.03678
Instrument type: EI-MS
m/z	relative intensity
17	11
26	12
27	30
37	27
38	55
39	81
45	61
49	25
50	241
51	409
52	69
53	15
61	10
62	11
63	12
65	22
66	19
73	19
74	91
75	33
76	67
77	745
78	83
94	28
105	999
106	84
122	828
123	62
