Mass spectrum: METHYL CHLOROFORMATE; EI-MS
Formula: C2H3ClO2
Exact mass: 93.98216
Instrument type: EI-MS
m/z	relative intensity
12	14
13	21
14	61
15	758
16	22
18	24
28	63
29	238
30	44
31	48
35	100
36	22
37	33
44	104
47	11
49	10
50	40
52	12
59	999
60	23
63	252
65	83
94	21
