Mass spectrum: 5-(3-HYDROXY-3-METHYL-1-BUTYNYL)PYRIDINE-2-CARBOXYLIC ACID; EI-MS
Formula: C11H11NO3
Exact mass: 205.07389
Instrument type: EI-MS
m/z	relative intensity
51	20
52	55
59	85
63	2
65	55
76	115
77	266
78	16
79	195
80	50
83	195
85	8
91	142
92	80
93	102
102	9
103	224
104	213
105	80
115	20
116	160
117	204
118	120
119	5
130	170
143	435
144	160
145	12
146	999
147	118
159	48
160	6
161	60
162	20
187	45
190	17
205	30
