Mass spectrum: 2-ETHYL-2-PROPANOL; EI-MS
Name: TERT-AMYL ALCOHOL
Formula: C5H12O
Exact mass: 88.08882
Instrument type: EI-MS
m/z	relative intensity
15	53
26	19
27	137
28	2
29	115
31	297
38	10
39	9
40	10
41	171
42	21
43	19
45	100
53	17
55	381
56	2
57	19
58	16
59	999
60	3
70	13
71	57
72	589
74	26
