Mass spectrum: AFLATOXINE B2; EI-MS
Name: 2,3,6AALPHA,8,9,9AALPHA-HEXAHYDRO-4-METHOXYCYCLOPENTA(C)FURO(3',2':4,5)FURO(2,3-H)(1)BENZOPYRAN-1,11-DIONE
Formula: C17H14O6
Exact mass: 314.07904
Instrument type: EI-MS
m/z	relative intensity
229	15
243	28
269	37
271	43
272	78
283	21
285	156
286	7
299	34
314	999
315	195
316	20
