Mass spectrum: ETHYLISOPROPYLHYDRAZONE ACETONE; EI-MS
Name: ACETONE ETHYLISOPROPYLHYDRAZONE
Formula: C8H18N2
Exact mass: 142.147
Instrument type: EI-MS
m/z	relative intensity
27	155
28	126
29	119
30	8
39	85
40	31
41	207
42	35
43	259
44	97
54	15
55	2
56	535
57	41
58	108
59	1
70	164
71	71
72	85
82	4
83	15
84	28
85	285
86	3
99	102
100	8
127	999
128	10
141	9
142	259
143	33
