Mass spectrum: 3-BROMO-1-PROPYNE; EI-MS
Name: PROPARGYL BROMIDE
Formula: C3H3Br
Exact mass: 117.94181
Instrument type: EI-MS
m/z	relative intensity
25	14
36	29
37	163
38	233
39	999
40	32
79	33
81	34
118	145
119	11
120	136
121	10
