Mass spectrum: FURFURAL; EI-MS
Name: 2-FURANCARBOXALDEHYDE
Formula: C5H4O2
Exact mass: 96.02113
Instrument type: EI-MS
m/z	relative intensity
14	14
25	12
26	22
28	58
29	172
36	16
37	110
38	180
39	645
40	65
41	17
42	53
49	17
50	26
51	27
53	17
66	13
67	56
68	14
95	904
96	999
97	62
