Mass spectrum: 1-BUTENE; EI-MS
Formula: C4H8
Exact mass: 56.0626
Instrument type: EI-MS
m/z	relative intensity
15	22
25	13
26	117
27	38
28	425
29	203
37	40
38	7
39	597
40	117
41	999
42	6
49	31
50	94
51	75
52	2
53	106
54	42
55	378
56	75
57	36
