Mass spectrum: (24R)-24-METHYL-5-CHOLESTEN-3BETA-YL TRIMETHYLSILYL ETHER; EI-MS
Name: CAMPESTERYL TRIMETHYLSILYL ETHER
Formula: C31H56OSi
Exact mass: 472.41004
Instrument type: EI-MS
m/z	relative intensity
41	102
42	19
43	367
44	32
47	19
51	18
53	25
55	252
56	23
57	196
63	18
65	54
67	113
69	167
70	38
71	226
73	508
74	40
75	264
76	36
79	77
80	26
81	177
82	11
83	106
84	12
85	64
89	14
91	179
92	42
93	191
94	48
95	321
96	14
97	95
99	59
101	73
103	61
104	11
105	203
106	56
107	258
108	53
109	121
111	48
113	19
115	47
116	67
117	61
118	23
119	268
120	127
121	277
122	36
123	61
125	27
127	52
128	16
129	999
130	174
131	161
132	64
133	184
134	109
135	121
136	63
143	127
144	104
145	241
146	110
147	151
148	21
149	65
151	21
153	16
155	51
157	66
158	108
159	23
160	51
161	104
162	86
163	73
164	42
165	32
167	17
169	60
171	23
173	50
174	49
175	59
176	53
177	28
180	51
185	30
186	47
187	13
189	15
190	61
193	20
195	29
196	59
197	29
198	58
199	35
201	26
202	25
203	64
211	23
213	94
222	42
223	14
225	82
227	73
229	35
247	55
253	42
255	132
256	60
257	43
260	45
261	132
262	46
281	60
289	71
341	67
342	157
343	745
344	209
367	259
368	111
382	547
383	165
457	79
472	235
473	111
