Mass spectrum: 2-(3-DIPROPYLAMINOPROPIONYL)-5,7-DIMETHYL-1,2,3,4-TETRAHYDROPYRIMIDO(1,6-A)INDOLE; EI-MS
Formula: C22H33N3O
Exact mass: 355.26236
Instrument type: EI-MS
m/z	relative intensity
58	200
69	102
72	40
86	68
87	67
100	102
101	122
114	92
115	78
127	25
128	61
129	3
143	71
144	68
156	52
157	5
158	255
159	35
171	275
198	10
199	999
200	152
241	100
326	18
327	70
354	10
355	750
