Mass spectrum: BUTYLALDEHYDE; EI-MS
Name: BUTANAL
Formula: C4H8O
Exact mass: 72.05751
Instrument type: EI-MS
m/z	relative intensity
27	300
28	133
29	421
30	1
31	17
39	33
41	405
42	6
43	671
44	999
45	29
54	2
57	224
58	10
60	17
71	6
72	686
73	33
