Mass spectrum: CYCLOHEXANONE; EI-MS
Formula: C6H10O
Exact mass: 98.07316
Instrument type: EI-MS
m/z	relative intensity
15	16
18	14
26	30
27	176
28	103
29	66
38	19
39	189
40	51
41	312
42	675
43	110
50	12
51	15
53	23
54	74
55	999
56	113
57	16
69	259
70	197
71	16
80	41
83	74
97	17
98	328
99	30
