Mass spectrum: DIBENZO(D,F)-1,1,3,3-TETRAMETHYL-1,3-DISILA-2-OXACYCLOHEPTA-4,6-DIENE; EI-MS
Formula: C16H20OSi2
Exact mass: 284.10527
Instrument type: EI-MS
m/z	relative intensity
73	18
97	18
119	13
127	60
134	59
135	17
165	84
166	16
167	12
179	12
180	17
181	22
193	29
195	204
196	45
197	15
209	16
253	15
269	999
270	290
271	108
272	19
284	197
285	55
286	20
