Mass spectrum: URACIL; EI-MS
Formula: C4H4N2O2
Exact mass: 112.02728
Instrument type: EI-MS
m/z	relative intensity
14	23
18	18
25	11
26	46
27	35
28	368
29	35
38	31
39	59
40	224
41	249
42	395
43	98
44	39
53	18
56	13
67	10
68	160
69	472
70	56
112	999
113	61
