Mass spectrum: BUTYL METHYL ETHER; EI-MS
Formula: C5H12O
Exact mass: 88.08882
Instrument type: EI-MS
m/z	relative intensity
15	59
26	11
27	80
28	4
29	109
31	14
39	43
40	1
41	86
42	9
43	9
44	1
45	999
46	16
47	20
55	1
56	173
57	14
88	32
