Mass spectrum: DL-ALPHA-PHENYLETHYL ALCOHOL; EI-MS
Formula: C8H10O
Exact mass: 122.07316
Instrument type: EI-MS
m/z	relative intensity
15	19
27	49
28	35
29	20
39	64
43	344
45	45
50	70
51	195
52	43
53	27
53.5	99
63	25
65	15
74	22
75	20
76	18
77	399
78	196
79	770
80	46
91	20
103	43
104	45
105	87
107	999
108	75
121	51
122	248
123	24
