Mass spectrum: PROPENOIC ACID METHYL ESTER; EI-MS
Name: METHYL ACRYLATE
Formula: C4H6O2
Exact mass: 86.03678
Instrument type: EI-MS
m/z	relative intensity
15	82
26	39
27	310
28	20
29	18
31	30
41	13
42	44
43	33
44	49
55	999
56	37
57	27
58	68
59	37
68	13
85	127
86	10
