Mass spectrum: 6-METHYLTHIOHEXANENITRILE; EI-MS
Formula: C7H13NS
Exact mass: 143.07687
Instrument type: EI-MS
m/z	relative intensity
32	225
39	210
41	520
45	20
48	210
55	375
61	999
62	12
63	60
69	260
73	65
75	10
82	135
85	60
96	275
97	19
128	75
143	545
144	85
145	50
