Mass spectrum: BUTYL PHENYL KETONE; EI-MS
Formula: C11H14O
Exact mass: 162.10447
Instrument type: EI-MS
m/z	relative intensity
27	15
29	15
39	15
41	15
50	19
51	86
55	16
76	12
77	414
78	59
91	10
105	999
106	73
120	455
121	38
133	22
162	22
