Mass spectrum: BENZOPHENONE; EI-MS
Formula: C13H10O
Exact mass: 182.07316
Instrument type: EI-MS
m/z	relative intensity
50	85
51	310
52	23
74	31
75	30
76	50
77	628
78	55
105	999
106	71
152	28
181	60
182	462
183	68
