Mass spectrum: 1-(TRIMETHYLSILYL)OXY-2-NAPHTHOIC ACID TRIMETHYLSILYL ESTER; EI-MS
Formula: C17H24O3Si2
Exact mass: 332.1264
Instrument type: EI-MS
m/z	relative intensity
40	89
43	220
47	258
49	13
63	93
65	125
73	498
74	9
75	999
76	123
77	122
93	42
94	82
95	131
115	86
147	15
170	97
317	389
318	104
319	41
