Mass spectrum: 2-METHYL-8-QUINOLINOL; EI-MS
Name: 8-HYDROXY-2-METHYLQUINOLINE
Formula: C10H9NO
Exact mass: 159.06841
Instrument type: EI-MS
m/z	relative intensity
27	22
28	14
29	20
38	36
39	91
50	64
51	114
63	110
655	73
77	124
89	62
102	40
103	92
104	41
116	27
129	34
130	250
131	501
132	59
158	32
159	999
160	122
161	13
