Mass spectrum: ISOAMYL CROTONATE; EI-MS
Name: 3-METHYLBUTYL TRANS-2-BUTENOATE
Formula: C9H16O2
Exact mass: 156.11503
Instrument type: EI-MS
m/z	relative intensity
27	93
29	63
38	14
39	262
41	386
42	105
43	144
45	13
53	12
55	220
56	16
57	10
68	22
69	999
70	582
71	35
86	10
87	217
99	14
113	13
