Mass spectrum: 1,4-DICHLOROBUTANE; EI-MS
Formula: C4H8Cl2
Exact mass: 126.00031
Instrument type: EI-MS
m/z	relative intensity
42	15
49	57
51	25
53	38
54	83
55	999
56	47
61	11
62	148
63	61
64	48
65	18
75	54
77	23
90	182
91	12
92	59
