Mass spectrum: 1,2-BENZENEDICARBOXYLIC ACID 2-ETHYLHEXYLMETHYL ESTER; EI-MS
Name: METHYL(2-ETHYLHEXYL) PHTHALATE
Formula: C17H24O4
Exact mass: 292.16746
Instrument type: EI-MS
m/z	relative intensity
28	10
41	33
42	27
43	81
55	58
56	56
57	70
68	4
69	28
70	315
71	55
77	23
82	16
83	112
84	53
91	6
92	24
97	5
104	11
105	18
112	120
113	17
132	12
133	13
135	29
136	18
149	450
150	43
151	3
162	4
163	999
164	114
165	11
181	228
182	23
293	26
294	4
