Mass spectrum: 5-ISOPROPYL-2-METHYLPHENOL; EI-MS
Formula: C10H14O
Exact mass: 150.10447
Instrument type: EI-MS
m/z	relative intensity
91	161
107	175
115	90
117	8
121	88
135	999
136	100
150	346
