Mass spectrum: GAMMA-CHLORO-N-BUTYRIC ACID METHYL ESTER; EI-MS
Formula: C5H9ClO2
Exact mass: 136.02911
Instrument type: EI-MS
m/z	relative intensity
39	156
41	94
42	106
49	17
51	39
55	122
59	664
60	7
69	44
74	843
75	178
76	3
77	480
79	139
105	999
106	4
107	324
