Mass spectrum: INDOLE-3-LACTIC ACID METHYL ESTER; EI-MS
Formula: C12H13NO3
Exact mass: 219.08954
Instrument type: EI-MS
m/z	relative intensity
15	42
29	42
31	58
39	3
41	16
50	16
51	33
63	2
75	19
77	74
89	19
102	3
103	44
109	40
115	26
130	999
131	107
132	16
143	14
159	1
160	26
170	37
201	37
219	13
220	19
