Mass spectrum: ETHYLENE GLYCOL; EI-MS
Formula: C2H6O2
Exact mass: 62.03678
Instrument type: EI-MS
m/z	relative intensity
14	18
15	104
26	12
27	52
28	19
29	136
30	19
31	999
32	108
33	371
42	30
43	80
44	20
45	13
61	16
62	55
