Mass spectrum: PHENYL ACETATE; EI-MS
Formula: C8H8O2
Exact mass: 136.05243
Instrument type: EI-MS
m/z	relative intensity
43	140
65	33
66	51
77	10
94	999
95	67
136	183
137	18
