Mass spectrum: PHENYLETHYL CROTONATE; EI-MS
Name: PHENETHYL TRANS-2-BUTENOATE
Formula: C12H14O2
Exact mass: 190.09938
Instrument type: EI-MS
m/z	relative intensity
27	24
38	13
39	169
41	211
50	13
51	47
52	11
63	19
65	66
68	11
69	568
70	21
77	74
78	50
79	28
89	13
91	109
92	12
103	49
104	999
105	127
