Mass spectrum: 1,2,4,5-TETRAMETHYLBENZENE; EI-MS
Name: DURENE
Formula: C10H14
Exact mass: 134.10955
Instrument type: EI-MS
m/z	relative intensity
50	11
51	36
52	13
53	28
57	11
58	12
63	21
64	23
65	54
66	28
67	15
77	61
78	16
79	25
91	113
92	12
93	13
103	29
104	18
105	31
115	49
116	21
117	61
118	23
119	999
120	100
133	127
134	648
135	72
