Mass spectrum: 2-ETHYL-5-METHYLFURAN; EI-MS
Formula: C7H10O
Exact mass: 110.07316
Instrument type: EI-MS
m/z	relative intensity
27	11
29	20
39	11
41	181
43	443
52	10
53	96
54	10
55	20
65	69
66	20
67	320
68	18
77	10
79	39
81	30
82	29
94	28
95	999
96	188
108	10
109	121
110	698
111	103
