Mass spectrum: 3-UNDECANOL; EI-MS
Formula: C11H24O
Exact mass: 172.18272
Instrument type: EI-MS
m/z	relative intensity
27	99
29	177
31	157
39	46
41	296
42	62
43	195
44	23
45	14
53	15
54	13
55	306
56	65
57	212
58	125
59	999
60	29
67	22
68	11
69	585
70	67
71	28
72	13
81	11
82	12
83	311
84	30
85	14
97	39
98	11
125	21
143	169
144	14
154	16
