Mass spectrum: TRIS(2-ETHYLHEXYL)PHOSPHATE; EI-MS
Formula: C24H51O4P
Exact mass: 434.3525
Instrument type: EI-MS
m/z	relative intensity
50	24
51	36
53	118
54	769
55	247
56	535
67	122
68	8
69	271
70	712
71	248
81	3
82	34
83	205
84	61
99	999
111	32
112	200
113	336
114	3
211	176
323	232
324	42
