Mass spectrum: 1,4-DIMETHYL PHTHALATE; EI-MS
Name: TEREPHTHARIC ACID DIMETHYL ESTER
Formula: C10H10O4
Exact mass: 194.05791
Instrument type: EI-MS
m/z	relative intensity
59	35
75	83
76	42
77	192
78	19
79	25
91	30
92	75
103	568
104	219
105	56
107	42
112	11
118	41
119	62
120	159
121	15
136	29
163	999
164	106
165	13
179	15
194	190
195	21
