Mass spectrum: ANTHRAQUINONE; EI-MS
Formula: C14H8O2
Exact mass: 208.05243
Instrument type: EI-MS
m/z	relative intensity
27	23
28	16
38	17
39	55
50	166
51	48
53	13
62	18
63	58
74	90
75	110
76	226
77	55
86	17
87	33
90	15
98	21
99	21
100	13
101	12
102	29
104	16
113	12
125	20
126	93
127	11
150	122
151	214
152	642
153	85
178	18
179	33
180	761
181	110
207	110
208	999
209	209
210	25
