Mass spectrum: 1,5,6-TRI-O-ACETYL-2,3,4-TRI-O-METHYLHEXITOL (1-D); EI-MS
Name: 1,5,6-TRIACETOXY-2,3,4-TRIMETHOXYHEXANE (1-D)
Formula: C15H26O9
Exact mass: 350.15768
Instrument type: EI-MS
m/z	relative intensity
41	17
42	27
43	999
44	3
45	73
46	14
59	62
60	1
69	10
70	19
71	58
72	2
73	31
74	32
75	36
76	1
85	15
87	320
88	128
89	4
99	384
100	57
101	111
102	85
103	71
113	69
114	13
115	1
117	59
118	744
119	43
129	62
130	111
131	46
132	11
142	1
143	17
159	52
161	27
162	33
163	25
173	74
174	22
189	26
190	25
233	52
234	10
