Mass spectrum: STYRENE 0XIDE; EI-MS
Name: PHENYLOXIRANE
Formula: C8H8O
Exact mass: 120.05751
Instrument type: EI-MS
m/z	relative intensity
42	18
43	43
50	23
51	53
58	18
62	19
63	57
64	18
65	187
89	32
91	999
92	224
120	240
121	22
