Mass spectrum: 3-METHOXY-1-BUTANOL; EI-MS
Formula: C5H12O2
Exact mass: 104.08373
Instrument type: EI-MS
m/z	relative intensity
14	16
15	46
27	51
28	17
29	105
31	176
33	82
39	34
41	64
42	47
43	66
45	42
55	43
56	15
57	47
58	29
59	999
60	37
71	39
72	22
86	22
89	65
