Mass spectrum: 5-METHYL-2-HEXANONE; EI-MS
Name: ISOPENTYL METHYL KETONE
Formula: C7H14O
Exact mass: 114.10447
Instrument type: EI-MS
m/z	relative intensity
15	62
26	11
27	120
29	65
39	93
41	144
42	34
43	999
44	19
53	13
55	41
56	30
57	120
58	386
59	96
71	80
81	33
114	18
