Mass spectrum: DOCOSANOIC ACID; EI-MS
Name: BEHENIC ACID
Formula: C22H44O2
Exact mass: 340.33413
Instrument type: EI-MS
m/z	relative intensity
27	122
29	236
30	12
31	1
39	70
41	701
42	134
43	999
44	14
45	78
53	38
54	5
55	627
56	135
57	702
58	3
59	38
60	694
61	212
62	1
67	72
68	56
69	362
70	9
71	303
72	20
73	656
74	7
79	19
81	52
82	52
83	22
84	77
85	192
86	17
87	12
88	15
93	15
94	10
95	3
96	37
97	140
98	83
99	5
100	12
101	50
102	18
107	1
109	21
110	19
111	67
112	3
113	34
115	69
116	38
121	1
123	12
124	12
125	35
126	2
127	17
129	255
130	26
135	1
138	10
139	20
141	13
143	3
155	11
157	22
158	10
171	4
172	22
185	67
186	14
199	2
213	20
227	22
241	58
242	1
255	18
269	22
284	64
285	2
297	34
