Mass spectrum: METHACRYLIC ACID BUTYL ESTER; EI-MS
Name: BUTYL METHACRYLATE
Formula: C8H14O2
Exact mass: 142.09938
Instrument type: EI-MS
m/z	relative intensity
15	12
26	12
27	79
28	48
29	192
31	16
39	184
40	50
41	855
42	46
43	54
45	21
55	100
56	591
57	84
59	21
68	15
69	999
70	60
71	10
73	10
74	11
86	33
87	683
88	33
99	13
113	12
