Mass spectrum: BENZO(A)PYRENE; EI-MS
Formula: C20H12
Exact mass: 252.0939
Instrument type: EI-MS
m/z	relative intensity
124	77
125	155
126	238
250	167
251	49
252	999
253	119
