Mass spectrum: N-ACETYLVALYLLEUCYLGLYCINE METHYL ESTER; EI-MS
Formula: C16H29N3O5
Exact mass: 343.21072
Instrument type: EI-MS
m/z	relative intensity
43	15
72	34
86	999
87	69
90	12
100	15
113	11
114	125
115	96
142	52
144	15
185	10
187	21
227	167
228	41
229	25
255	17
287	80
288	13
312	13
344	9
