Mass spectrum: 2-PHENYLETHYL BENZOATE; EI-MS
Name: PHENETHYL BENZOATE
Formula: C15H14O2
Exact mass: 226.09938
Instrument type: EI-MS
m/z	relative intensity
27	17
39	25
50	28
51	132
52	11
63	11
65	41
76	15
77	355
78	54
79	15
91	74
103	27
104	999
105	452
106	26
