Mass spectrum: TERT-BUTYLBENZENE; EI-MS
Formula: C10H14
Exact mass: 134.10955
Instrument type: EI-MS
m/z	relative intensity
15	15
27	34
28	19
29	24
39	108
41	196
50	31
51	106
52	22
53	14
57	10
58	20
63	27
65	43
74	10
75	12
76	11
77	132
78	49
79	97
89	14
91	617
92	42
102	18
103	57
104	17
115	32
116	10
117	25
118	11
119	999
120	92
134	241
135	24
