Mass spectrum: FLUORESCEIN; EI-MS
Name: 3',6'-DIHYDROXYSPIRO(ISOBENZOFURAN-1(3H),9'-(9H)XANTHEN)-3-ONE
Formula: C20H12O5
Exact mass: 332.06847
Instrument type: EI-MS
m/z	relative intensity
39	32
41	23
43	39
44	26
50	32
51	29
52	13
53	25
55	27
62	14
63	40
65	14
67	12
69	37
71	26
74	20
75	35
76	68
77	27
79	15
81	22
86	11
87	19
88	34
89	14
91	12
93	20
94	14
95	13
100	28
101	50
104	40
105	16
106	10
107	26
108	13
109	13
110	11
113	11
115	24
121	23
126	12
127	13
128	10
129	27
135	47
136	20
137	28
138	41
139	34
144	78
149	12
150	23
151	20
152	29
163	25
170	10
174	14
175	21
176	40
177	10
186	14
187	30
188	17
189	46
190	11
198	11
199	12
200	63
201	49
202	135
203	28
205	13
211	12
212	12
213	53
214	13
229	29
231	22
240	12
242	15
258	81
259	46
260	11
271	325
272	68
273	14
287	999
288	697
289	131
290	17
303	23
331	14
332	33
333	10
