Mass spectrum: DIMETHYL PHOSPHITE; EI-MS
Name: PHOSPHONIC ACID DIMETHYL ESTER
Formula: C2H7O3P
Exact mass: 110.01328
Instrument type: EI-MS
m/z	relative intensity
15	145
29	73
31	137
32	11
47	294
48	32
49	71
65	57
77	25
79	948
80	999
81	25
93	22
95	142
109	73
110	58
111	19
