Mass spectrum: ISOAMYL ORTHO TOLUATE; EI-MS
Name: ORTHO TOLUIC ACID ISOAMYL ESTER
Formula: C13H18O2
Exact mass: 206.13068
Instrument type: EI-MS
m/z	relative intensity
27	89
29	119
39	154
40	13
41	211
42	83
43	871
44	26
50	13
51	36
55	232
63	54
64	17
65	310
66	15
69	21
70	706
71	358
72	15
77	41
79	20
89	71
90	120
91	634
92	55
93	46
118	772
119	999
120	86
135	28
136	571
137	317
138	23
206	26
