Mass spectrum: 5-CHLORO-2-METHOXY-3,7-BIS(METHOXYMETHYL)CYCLOHEPTA-2,4,6-TRIEN-1-ONE; EI-MS
Formula: C12H15ClO4
Exact mass: 258.06589
Instrument type: EI-MS
m/z	relative intensity
45	999
75	130
77	250
78	8
79	60
85	55
89	120
90	6
91	170
92	70
99	50
102	4
103	200
104	35
105	150
111	6
112	40
113	60
114	30
118	4
119	65
121	65
125	425
126	3
127	165
128	50
129	30
131	12
133	65
134	45
137	65
138	7
139	160
140	165
141	60
142	85
143	140
144	205
145	35
149	8
152	50
153	120
154	55
155	18
156	50
157	40
165	80
166	8
167	180
168	230
169	195
170	5
171	40
172	100
181	40
182	3
183	420
184	85
185	300
186	2
191	40
194	50
195	70
196	5
197	30
198	55
199	35
211	67
212	85
213	130
214	30
226	46
227	60
228	280
229	55
243	19
244	25
245	85
258	465
259	13
260	140
261	35
