Mass spectrum: 1-BROMONAPHTHALENE; EI-MS
Formula: C10H7Br
Exact mass: 205.97311
Instrument type: EI-MS
m/z	relative intensity
49	11
50	102
51	92
52	15
57	18
61	27
62	51
63	272
64	25
74	100
75	125
76	67
77	134
78	12
85	13
86	26
87	48
89	12
90	23
91	23
98	38
99	36
100	24
101	90
102	11
103	118
104	117
115	12
125	17
126	228
127	999
128	114
129	10
205	60
206	863
207	97
208	829
209	96
