Mass spectrum: 3,4-DIHYDROXYBENZOIC ACID; EI-MS
Name: PROTOCATECHUIC ACID
Formula: C7H6O4
Exact mass: 154.02661
Instrument type: EI-MS
m/z	relative intensity
17	139
18	964
27	51
28	5
39	26
43	36
44	51
51	1
52	67
53	41
55	67
57	9
63	72
64	62
71	15
79	2
80	5
81	118
97	36
108	1
109	236
110	200
111	15
137	87
138	72
154	999
155	82
