Mass spectrum: 3-ACETYL-2,5,6-TRIMETHYLHYDROQUINONE; EI-MS
Name: 3,6-DIHYDROXY-2,4,5-TRIMETHYLACETOPHENONE
Formula: C11H14O3
Exact mass: 194.09429
Instrument type: EI-MS
m/z	relative intensity
27	31
28	20
39	48
41	4
43	134
53	34
55	33
67	6
77	45
79	25
91	27
123	6
133	23
149	47
151	50
161	4
175	30
176	106
179	999
180	12
193	31
194	605
195	72
