Mass spectrum: 1-ETHYLBUTYL ISOBUTYRATE; EI-MS
Name: 3-HEXYL ISOBUTYRATE
Formula: C10H20O2
Exact mass: 172.14633
Instrument type: EI-MS
m/z	relative intensity
27	168
28	31
29	101
31	19
39	80
40	13
41	237
42	76
43	999
44	47
55	122
56	80
57	82
59	54
69	40
71	981
72	47
73	20
84	141
85	245
86	15
89	97
101	11
129	62
143	41
