Mass spectrum: 2,5-DIMETHYLBENZOIC ACID TRIMETHYLSILYL ESTER; EI-MS
Formula: C12H18O2Si
Exact mass: 222.10761
Instrument type: EI-MS
m/z	relative intensity
73	117
75	49
77	235
79	13
96	117
103	107
104	147
105	28
132	558
133	999
134	49
163	37
207	627
208	49
222	156
