Mass spectrum: ISOBUTYL ISOBUTYRATE; EI-MS
Formula: C8H16O2
Exact mass: 144.11503
Instrument type: EI-MS
m/z	relative intensity
15	15
26	11
27	160
28	37
29	178
31	17
39	96
40	20
41	343
42	65
43	858
44	27
55	31
56	532
57	383
58	17
70	29
71	999
72	48
73	34
88	24
89	289
90	14
101	78
