Mass spectrum: METHYL PENTYL DISULFIDE; EI-MS
Formula: C6H14S2
Exact mass: 150.05369
Instrument type: EI-MS
m/z	relative intensity
41	95
43	999
47	200
61	13
79	164
80	709
94	218
108	18
122	618
150	418
151	55
152	36
