Mass spectrum: 3-METHOXY-8-METHYLMERCAPTODECANE; EI-MS
Formula: C12H26OS
Exact mass: 218.17044
Instrument type: EI-MS
m/z	relative intensity
41	490
45	210
55	398
61	15
71	329
73	999
83	436
89	95
97	171
99	102
109	431
115	10
138	250
139	143
157	72
171	58
172	23
186	245
187	46
189	17
218	260
219	31
