Mass spectrum: TERT-PENTYLBENZENE; EI-MS
Name: (1.1-DIMETHYLPROPYL)BENZENE
Formula: C11H16
Exact mass: 148.1252
Instrument type: EI-MS
m/z	relative intensity
27	49
29	38
39	76
41	162
43	15
50	20
51	61
52	16
53	18
55	42
63	22
65	40
75	10
76	11
77	94
78	44
79	84
91	574
92	47
102	14
103	51
104	18
105	63
115	40
116	12
117	33
118	24
119	999
120	102
133	30
148	169
149	22
