Mass spectrum: 4,5,6,7-TETRAHYDRO-2-PHENYLBENZOFURAN; EI-MS
Formula: C14H14O
Exact mass: 198.10447
Instrument type: EI-MS
m/z	relative intensity
17	67
18	296
28	999
32	250
39	60
41	54
51	86
77	232
91	62
99	45
102	42
105	254
109	112
115	81
128	53
141	156
142	44
165	64
170	802
171	119
175	41
194	96
197	136
198	800
199	127
