Mass spectrum: ISOBUTYL METHYL KETONE; EI-MS
Name: 4-METHYL-2-PENTANONE
Formula: C6H12O
Exact mass: 100.08882
Instrument type: EI-MS
m/z	relative intensity
15	32
18	11
27	50
28	25
29	98
39	56
41	174
42	34
43	999
44	25
57	203
58	379
59	24
67	16
85	144
100	117
101	17
