Mass spectrum: 2-ETHOXYBENZAMIDE; EI-MS
Formula: C9H11NO2
Exact mass: 165.07898
Instrument type: EI-MS
m/z	relative intensity
29	14
44	10
64	15
65	55
77	25
91	23
92	311
93	71
104	11
105	456
106	35
119	31
120	999
121	318
122	69
131	11
133	345
134	30
137	22
146	12
147	23
148	546
149	87
150	536
151	53
165	118
166	33
