Mass spectrum: ETHYL 2-ETHOXYCARBONYL-3-(1-PHENETHYL)-5-HEXENOATE; EI-MS
Formula: C19H26O4
Exact mass: 318.18311
Instrument type: EI-MS
m/z	relative intensity
104	20
105	221
118	34
129	1
131	13
132	18
143	137
157	1
158	306
159	25
160	999
161	22
162	29
173	111
178	10
184	1
185	54
198	53
213	11
214	1
227	94
228	21
230	10
272	6
273	115
274	31
318	104
