Mass spectrum: 4-CHLOROACETOACETIC ACID ETHYL ESTER; EI-MS
Name: ETHYL 4-CHLOROACETOACETATE
Formula: C6H9ClO3
Exact mass: 164.02402
Instrument type: EI-MS
m/z	relative intensity
14	68
15	102
25	34
26	153
27	552
28	104
29	999
30	38
31	398
37	33
38	34
39	63
41	213
42	463
43	988
44	94
45	205
46	68
49	261
51	83
53	23
55	62
60	26
69	754
70	46
73	30
76	27
77	262
79	83
83	28
87	107
92	41
94	15
111	83
115	660
116	43
118	137
119	243
120	59
121	82
164	58
166	23
