Mass spectrum: BENZALDEHYDE; EI-MS
Formula: C7H6O
Exact mass: 106.04186
Instrument type: EI-MS
m/z	relative intensity
50	132
51	318
52	68
74	53
76	40
77	846
78	145
105	99
106	999
107	111
