Mass spectrum: METHYL ACETATE; EI-MS
Formula: C3H6O2
Exact mass: 74.03678
Instrument type: EI-MS
m/z	relative intensity
14	59
15	361
28	10
29	8
31	26
41	11
42	95
43	999
44	26
59	68
74	177
75	11
