Mass spectrum: 3-PHENYL-2-PROPENOIC ACID TRIMETHYLSILYL ESTER; EI-MS
Name: CINNAMIC ACID TRIMETHYLSILYL ESTER
Formula: C12H16O2Si
Exact mass: 220.09196
Instrument type: EI-MS
m/z	relative intensity
43	212
45	221
51	88
73	15
75	530
76	70
77	513
102	9
103	566
131	982
132	79
135	21
145	238
161	858
162	132
205	999
206	159
207	61
220	221
