Mass spectrum: METHACRYLIC ACID ETHYL ESTER; EI-MS
Name: ETHYL METHACRYLATE
Formula: C6H10O2
Exact mass: 114.06808
Instrument type: EI-MS
m/z	relative intensity
15	31
26	28
27	123
28	37
29	332
38	31
39	297
40	86
41	918
42	84
43	37
45	96
55	29
58	28
68	52
69	999
70	84
71	25
85	16
86	175
87	24
96	22
99	114
113	15
114	61
115	8
