Mass spectrum: TRIACETIN; EI-MS
Name: 1,2,3-PROPANETRIOL ACETATE
Formula: C9H14O6
Exact mass: 218.07904
Instrument type: EI-MS
m/z	relative intensity
15	51
42	18
43	999
44	21
61	10
73	13
86	16
103	89
115	19
116	34
145	69
