Mass spectrum: TETRAMETHYLTIN; EI-MS
Formula: C4H12Sn
Exact mass: 179.9961
Instrument type: EI-MS
m/z	relative intensity
116	52
117	59
118	108
119	9
120	141
121	70
130	23
131	14
132	108
133	216
134	117
135	26
137	39
139	42
146	97
147	6
148	163
149	70
150	216
152	3
154	34
157	30
161	447
162	25
163	738
164	289
165	999
166	3
167	139
169	177
