Mass spectrum: 1-PENTENE; EI-MS
Formula: C5H10
Exact mass: 70.07825
Instrument type: EI-MS
m/z	relative intensity
15	24
26	47
27	334
28	6
29	355
37	24
38	54
39	47
40	103
41	732
42	999
43	16
44	36
50	27
51	32
52	1
53	78
54	25
55	917
56	17
57	103
62	10
63	11
65	1
67	22
69	56
70	538
71	47
