Mass spectrum: BENZYL CYANIDE; EI-MS
Name: PHENYLACETONITRILE
Formula: C8H7N
Exact mass: 117.05785
Instrument type: EI-MS
m/z	relative intensity
39	69
41	16
51	178
52	22
63	64
77	98
78	11
90	516
91	97
116	312
117	999
118	95
