Mass spectrum: SEC-BUTYL ACETATE; EI-MS
Formula: C6H12O2
Exact mass: 116.08373
Instrument type: EI-MS
m/z	relative intensity
29	40
41	98
42	10
43	999
44	24
45	25
55	24
56	228
57	116
61	88
72	10
73	70
87	243
88	11
101	43
116	33
