Mass spectrum: 1,3-DI-O-TRIMETHYLSILYL TETRADECASPHINGANINE; EI-MS
Formula: C20H47NO2Si2
Exact mass: 389.31453
Instrument type: EI-MS
m/z	relative intensity
43	5
55	5
56	5
57	7
67	3
68	5
69	12
70	1
71	4
73	23
74	3
75	5
76	4
81	4
82	8
83	0
84	3
85	1
87	3
91	0
93	3
95	4
96	4
97	1
102	4
103	14
108	3
111	1
116	59
117	5
129	15
130	0
131	73
132	999
133	110
134	4
135	3
147	9
184	3
196	1
210	5
217	6
219	3
234	1
256	3
257	36
258	9
269	0
270	7
284	13
285	8
286	24
287	55
288	15
345	7
374	1
375	3
