Mass spectrum: 3-CHLOROPROPENE; EI-MS
Name: ALLYL CHLORIDE
Formula: C3H5Cl
Exact mass: 76.00798
Instrument type: EI-MS
m/z	relative intensity
14	17
15	27
25	13
26	47
27	84
28	14
35	24
36	25
37	87
38	111
39	573
40	95
41	999
42	42
49	39
51	12
61	10
75	40
76	292
77	22
78	94
