Mass spectrum: 2-(2-BENZOTHIAZOLYL)AZO-4-(N,N-DIMETHYL)AMINOBENZOIC ACID; EI-MS
Formula: C16H14N4O2S
Exact mass: 326.08375
Instrument type: EI-MS
m/z	relative intensity
27	8
38	4
39	35
41	1
42	212
50	24
51	31
52	2
53	11
54	5
58	4
62	0
63	58
64	23
65	43
66	2
67	8
68	15
69	27
70	1
74	1
75	8
76	28
77	19
78	103
79	132
80	22
81	1
82	11
89	4
90	78
91	10
92	66
93	50
94	16
95	1
96	9
102	3
103	20
104	17
105	232
106	23
107	16
108	2
109	8
117	11
118	73
119	10
120	999
121	92
122	12
123	1
126	5
127	150
128	19
131	2
132	3
133	23
134	34
135	2
136	8
141	14
145	5
148	10
149	12
150	53
151	8
152	1
159	19
163	4
176	23
177	6
178	12
209	3
210	22
211	2
212	5
223	5
224	8
228	0
237	18
238	27
239	23
240	1
251	7
253	247
254	553
255	11
256	31
257	5
268	3
281	3
282	786
283	158
284	54
285	1
325	9
326	21
327	5
