Mass spectrum: ETHYL ACETOACETATE; EI-MS
Formula: C6H10O3
Exact mass: 130.06299
Instrument type: EI-MS
m/z	relative intensity
14	19
15	83
26	25
27	114
28	20
29	232
31	86
39	14
41	11
42	115
43	999
44	42
45	63
46	16
58	42
60	97
61	45
69	53
70	16
71	17
84	46
85	149
87	30
88	171
102	29
115	17
130	68
