Mass spectrum: 1-BUTYL-3,5,5-TRIMETHYL-3,4-DIHYDROFORMAZAN; EI-MS
Formula: C8H20N4
Exact mass: 172.1688
Instrument type: EI-MS
m/z	relative intensity
28	133
29	216
30	87
39	4
40	15
41	150
42	216
43	13
44	867
45	133
46	52
55	2
56	20
57	70
58	87
59	10
60	8
70	15
71	55
72	1
85	55
86	110
87	999
88	62
