Mass spectrum: (TRANS)FLAVAN-4-OL ACETATE; EI-MS
Name: TRANS-2-PHENYLCHROMAN-4-YL ACETATE
Formula: C17H16O3
Exact mass: 268.10994
Instrument type: EI-MS
m/z	relative intensity
43	18
45	4
60	50
78	1
130	4
131	170
132	10
165	0
179	6
180	6
207	468
208	999
209	150
210	10
