Mass spectrum: 3,5,5-TRIMETHYL-2-CYCLOHEXENONE; EI-MS
Formula: C9H14O
Exact mass: 138.10447
Instrument type: EI-MS
m/z	relative intensity
15	11
28	333
29	75
38	11
39	212
40	15
41	104
42	20
43	11
50	11
51	31
52	15
53	73
54	144
55	58
65	13
67	45
69	11
77	28
79	27
81	11
82	999
83	62
95	57
123	14
138	149
139	13
