Mass spectrum: 3-HEPTANONE; EI-MS
Formula: C7H14O
Exact mass: 114.10447
Instrument type: EI-MS
m/z	relative intensity
28	12
29	318
30	10
41	20
42	13
43	168
44	10
55	2
56	31
57	999
58	52
60	3
71	40
72	578
73	39
85	71
86	43
99	10
114	376
115	33
