Mass spectrum: 3-METHYLBENZOIC ACID TRIMETHYLSILYL ESTER; EI-MS
Formula: C11H16O2Si
Exact mass: 208.09196
Instrument type: EI-MS
m/z	relative intensity
43	154
44	325
45	281
47	13
63	127
65	425
73	176
91	59
92	127
96	127
119	999
120	13
147	121
149	839
150	160
193	81
194	154
208	132
