Mass spectrum: 2,4-DIBENZYL-3,6-DIMETHYLPYRIDINE; EI-MS
Formula: C21H21N
Exact mass: 287.1674
Instrument type: EI-MS
m/z	relative intensity
14	17
16	20
17	40
18	12
27	29
31	10
39	47
40	1
41	43
42	28
43	28
45	1
51	38
52	17
55	20
57	1
63	18
65	99
66	10
67	1
69	10
76	10
77	74
78	3
79	13
89	28
90	15
90.5	1
91	234
92	24
102	19
103	2
103.5	14
104	26
104.5	13
105	1
114	10
115.5	11
116	22
117	1
120.5	10
121	13
126	10
127.5	3
128	75
128.5	18
129	29
133.5	1
134	14
134.5	19
135	26
136	1
139	18
140	13
141	35
142	1
143	11
143.5	34
144	12
144.5	2
151	19
152	75
153	58
154	3
155	10
165	55
166	37
167	5
168	21
178	28
179	37
180	9
181	87
182	18
191	18
192	3
193	22
194	131
195	146
196	11
197	20
198	10
199	15
200	2
201	13
202	31
204	13
206	3
207	37
208	162
209	51
210	2
215	10
228	13
254	27
255	3
256	28
257	22
258	10
267	2
268	37
269	31
270	56
271	4
272	257
273	64
274	10
281	2
282	32
283	26
284	186
285	8
286	945
287	999
288	330
289	34
