Mass spectrum: 7,7,8,8-TETRACYANOQUINODIMETHANE; EI-MS
Formula: C12H4N4
Exact mass: 204.0436
Instrument type: EI-MS
m/z	relative intensity
88	15
101	22
102	12
113	12
125	20
126	17
128	23
141	48
150	47
151	22
152	62
153	20
177	194
178	46
179	11
203	14
204	999
205	155
206	21
