Mass spectrum: 3-METHYLENE-7-PHENYL-5-TRIMETHYLSILOXY-1-HEPTENE; EI-MS
Formula: C17H26OSi
Exact mass: 274.17529
Instrument type: EI-MS
m/z	relative intensity
43	41
45	108
59	84
65	47
73	999
74	84
75	160
77	49
78	32
79	60
80	42
91	528
92	99
93	77
97	39
103	104
104	64
105	56
117	240
155	36
156	32
169	296
170	50
184	52
187	57
207	286
208	53
274	137
275	35
