Mass spectrum: 5-(4-HYDROXYPHENYL)HYDANTOIN; EI-MS
Formula: C9H8N2O3
Exact mass: 192.05349
Instrument type: EI-MS
m/z	relative intensity
38	23
39	202
44	23
50	20
51	71
52	19
53	18
62	14
63	47
64	22
65	216
66	40
70	31
77	41
78	14
92	32
93	74
94	95
105	18
119	35
120	999
121	776
122	54
147	17
148	37
149	49
163	106
164	204
165	15
192	872
193	86
