Mass spectrum: ALLYL PHENOXYACETATE; EI-MS
Formula: C11H12O3
Exact mass: 192.07864
Instrument type: EI-MS
m/z	relative intensity
39	39
41	378
42	31
51	15
55	10
59	59
60	10
65	41
66	10
77	738
78	52
79	257
94	61
107	999
108	73
192	299
193	37
