Mass spectrum: 4-ISOPROPENYLBICYCLO(3.2.2)NONA-3,6-DIEN-2-ONE; EI-MS
Formula: C12H14O
Exact mass: 174.10447
Instrument type: EI-MS
m/z	relative intensity
70	21
78	27
80	16
81	1
87	35
92	97
96	18
105	9
108	90
118	246
119	83
120	6
129	39
130	458
131	106
132	5
133	269
134	62
141	67
145	44
146	101
148	60
156	74
157	3
159	88
160	27
161	19
173	19
174	999
175	69
