Mass spectrum: METHYL CELLOSOLVE ACETATE; EI-MS
Formula: C5H10O3
Exact mass: 118.06299
Instrument type: EI-MS
m/z	relative intensity
28	25
29	25
31	25
42	11
43	999
44	29
45	618
46	18
58	801
59	42
60	20
73	65
75	15
88	33
