Mass spectrum: PIPERONAL; EI-MS
Name: 1,3-BENZODIOXOLE-5-CARBALDEHYDE
Formula: C8H6O3
Exact mass: 150.03169
Instrument type: EI-MS
m/z	relative intensity
28	40
29	67
37	40
38	73
39	75
49	13
50	47
51	44
52	11
53	49
60	11
61	84
62	102
63	279
64	62
65	160
66	22
74	31
77	11
79	11
91	120
92	16
119	71
120	11
121	262
122	27
149	999
150	834
151	80
