Mass spectrum: 1-ETHYL-2,2,6,6-TETRAMETHYL-2,6-DISILAPIPERIDINE; EI-MS
Formula: C9H23NSi2
Exact mass: 201.1369
Instrument type: EI-MS
m/z	relative intensity
45	47
59	149
70	16
73	92
85	32
86	46
88	31
99	19
100	65
101	20
102	18
115	16
116	15
117	47
130	18
144	22
158	114
186	999
187	200
188	86
201	86
202	19
