Mass spectrum: BUTYL ISOBUTYRATE; EI-MS
Formula: C8H16O2
Exact mass: 144.11503
Instrument type: EI-MS
m/z	relative intensity
27	12
29	120
41	218
42	37
43	648
44	23
55	60
56	668
57	479
58	20
70	12
71	999
72	49
73	43
88	49
89	971
90	46
101	77
