Mass spectrum: 3,6-DIACETYL-9-PENTYLCARBAZOLE; EI-MS
Formula: C21H23NO2
Exact mass: 321.17288
Instrument type: EI-MS
m/z	relative intensity
28	768
29	26
32	141
41	6
43	254
44	18
45	54
55	3
57	40
69	25
71	15
83	1
146	36
151	13
164	17
165	1
178	61
179	25
180	10
192	2
193	36
220	22
221	239
222	4
236	13
263	13
264	999
265	14
306	545
307	76
321	576
322	97
