Mass spectrum: METHYL 4,4-DIMETHYL-8-OXO-1ALPHA,5ALPHA-BICYCLO(3.3.0)OCTANE-2BETA-CARBOXYLATE; EI-MS
Formula: C12H18O3
Exact mass: 210.12559
Instrument type: EI-MS
m/z	relative intensity
18	31
22	26
94	26
96	4
109	64
110	39
122	334
123	12
124	28
128	116
135	41
150	18
151	21
154	149
167	21
178	999
179	162
182	149
195	36
210	211
