Mass spectrum: 2-PHENYLPROPANOL; EI-MS
Formula: C9H12O
Exact mass: 136.08882
Instrument type: EI-MS
m/z	relative intensity
18	13
27	55
29	25
31	69
39	66
41	12
43	20
50	33
51	104
52	20
53	14
62	10
63	29
65	32
74	11
75	12
76	11
77	192
78	73
79	162
89	13
91	125
92	20
102	13
103	113
104	57
105	999
106	229
107	16
136	116
