Mass spectrum: 4-METHYLBENZOIC ACID (ALPHA-13C); EI-MS
Name: P-ATOLUIC ACID (ALPHA-13C)
Formula: C8H8O2
Exact mass: 136.05243
Instrument type: EI-MS
m/z	relative intensity
18	55
28	14
39	49
41	3
51	30
53	16
63	29
64	2
65	192
66	18
77	45
79	2
89	69
90	69
91	999
92	16
107	45
108	15
119	59
120	52
121	55
122	36
136	73
137	62
138	63
139	59
