Mass spectrum: 1,4-BUTANEDICARBONITRILE; EI-MS
Name: HEXANEDINITRILE
Formula: C6H8N2
Exact mass: 108.06875
Instrument type: EI-MS
m/z	relative intensity
15	15
26	29
27	78
28	73
29	10
37	20
38	32
39	169
40	56
41	999
42	68
43	48
44	28
50	20
51	38
52	67
53	52
54	405
55	187
64	15
66	35
67	24
68	412
69	29
70	15
77	15
80	24
105	15
106	10
107	21
108	10
109	29
