Mass spectrum: HEPTYL PHENYLACETATE; EI-MS
Formula: C15H22O2
Exact mass: 234.16198
Instrument type: EI-MS
m/z	relative intensity
27	95
29	174
39	101
41	339
42	69
43	453
51	23
53	15
55	136
56	76
57	999
58	32
63	27
64	10
65	151
68	10
69	37
70	42
71	13
89	33
90	30
91	974
92	254
93	14
98	47
119	21
136	307
137	137
143	115
234	11
