Mass spectrum: 1,1,4-TRIMETHYLINDAN; EI-MS
Formula: C12H16
Exact mass: 160.1252
Instrument type: EI-MS
m/z	relative intensity
15	65
27	54
28	27
39	68
41	30
51	48
53	27
65	35
70.5	35
77	45
79	17
91	41
103	16
105	60
115	99
128	103
129	76
143	24
145	999
159	8
160	153
161	20
