Mass spectrum: METHYL (Z)-10-PENTADECENOATE; EI-MS
Formula: C16H30O2
Exact mass: 254.22458
Instrument type: EI-MS
m/z	relative intensity
45	26
53	75
54	190
55	999
56	215
57	125
59	146
65	19
66	16
67	248
68	181
69	529
70	134
71	48
73	53
74	633
75	81
77	17
79	52
80	36
81	233
82	169
83	354
84	309
85	60
87	415
88	43
91	17
93	30
94	39
95	176
96	278
97	280
98	238
99	35
101	67
107	23
108	26
109	96
110	153
111	125
112	50
113	34
114	45
115	69
119	22
121	28
122	17
123	119
124	94
125	77
126	16
127	41
128	42
129	38
133	21
134	14
135	27
137	70
138	126
139	58
141	44
143	25
147	16
149	14
151	41
152	42
153	17
165	24
178	40
179	30
180	142
181	28
193	16
222	146
223	104
224	15
254	28
