Mass spectrum: VALERALDEHYDE DIBUTYL ACETAL; EI-MS
Name: PENTANAL DIBUTYL ACETAL
Formula: C13H28O2
Exact mass: 216.20893
Instrument type: EI-MS
m/z	relative intensity
27	83
29	281
31	28
39	37
41	307
42	23
43	56
44	22
45	20
47	13
55	42
56	59
57	999
58	51
69	294
70	16
85	15
87	346
88	18
103	181
143	314
144	27
159	158
160	14
