Mass spectrum: METHYL ETHYL SUCCINATE; EI-MS
Formula: C7H12O4
Exact mass: 160.07356
Instrument type: EI-MS
m/z	relative intensity
15	188
26	25
27	151
28	133
29	338
31	27
41	20
42	29
43	44
45	85
55	414
56	90
57	103
59	196
73	73
87	109
88	108
100	27
101	384
114	77
115	999
116	53
128	97
129	140
133	34
