Mass spectrum: UNDECANE; EI-MS
Formula: C11H24
Exact mass: 156.1878
Instrument type: EI-MS
m/z	relative intensity
40	25
41	511
42	151
43	999
44	38
53	17
54	11
55	11
56	112
57	610
58	27
67	1
68	3
69	27
70	56
71	20
72	12
73	17
83	7
84	3
85	95
86	11
98	16
99	1
112	6
113	8
126	2
127	0
156	7
157	1
