Mass spectrum: ISOPENTYL FORMATE; EI-MS
Name: 3-METHYLBUTYL FORMATE
Formula: C6H12O2
Exact mass: 116.08373
Instrument type: EI-MS
m/z	relative intensity
15	13
18	14
26	16
27	234
28	158
29	247
31	218
38	14
39	225
40	33
41	444
42	396
43	476
44	20
45	85
47	62
51	13
53	40
54	20
55	999
56	57
57	64
69	55
70	794
71	55
73	221
74	213
