Mass spectrum: 1-BROMOOCTANE; EI-MS
Formula: C8H17Br
Exact mass: 192.05136
Instrument type: EI-MS
m/z	relative intensity
40	21
42	627
43	828
53	34
54	21
55	555
56	202
57	999
58	49
67	21
68	15
69	309
70	134
71	714
72	41
73	45
75	18
83	89
84	41
85	53
99	11
107	34
109	33
113	12
121	13
123	10
130	18
135	704
136	34
137	685
138	33
149	63
151	60
185	20
187	11
192	11
194	10
