Mass spectrum: FURFURYL PENTANOATE; EI-MS
Name: FURFURYL VALERATE
Formula: C10H14O3
Exact mass: 182.09429
Instrument type: EI-MS
m/z	relative intensity
26	17
27	177
29	126
38	15
39	100
41	118
42	26
43	14
50	17
51	33
52	165
53	189
55	26
57	142
69	11
80	105
81	999
82	71
85	92
95	16
97	30
98	233
99	10
182	94
