Mass spectrum: 5,7-DIMETHYL-3',4'-METHYLENEDIOXYFLAVONE; EI-MS
Name: 5,7-DIMETHYL-2-(3,4-METHYLENEDIOXYPHENYL)-4H-CHROMEN-4-ONE
Formula: C18H14O4
Exact mass: 294.08921
Instrument type: EI-MS
m/z	relative intensity
39	23
41	21
65	20
91	11
119	30
120	82
125	22
133	3
145	114
146	319
147	68
148	15
149	169
266	92
293	86
294	999
295	260
296	24
