Mass spectrum: 2-METHYLUNDECANAL DIMETHYL ACETAL; EI-MS
Formula: C14H30O2
Exact mass: 230.22458
Instrument type: EI-MS
m/z	relative intensity
27	15
29	42
31	18
39	10
41	77
42	16
43	49
45	36
47	48
55	52
56	10
57	16
59	13
69	27
71	16
72	33
75	999
76	33
83	11
85	61
97	12
199	16
