Mass spectrum: 3,5,5-TRIMETHYL-1-HEXANOL; EI-MS
Formula: C9H20O
Exact mass: 144.15142
Instrument type: EI-MS
m/z	relative intensity
41	50
42	19
43	63
55	107
56	337
57	999
58	45
68	17
69	435
70	153
71	124
83	98
84	16
85	63
86	59
87	252
88	16
98	18
111	169
112	15
129	167
130	15
