Mass spectrum: BUTYRIC ACID VINYL ESTER; EI-MS
Formula: C6H10O2
Exact mass: 114.06808
Instrument type: EI-MS
m/z	relative intensity
27	91
29	17
41	179
42	32
43	999
44	60
45	10
55	25
57	140
60	14
69	12
70	10
71	696
72	31
73	10
99	24
114	35
