Mass spectrum: ETHYL FORMATE; EI-MS
Name: FORMIC ACID ETHYL ESTER
Formula: C3H6O2
Exact mass: 74.03678
Instrument type: EI-MS
m/z	relative intensity
14	20
15	43
26	79
27	365
28	999
29	405
30	35
31	985
43	79
45	320
47	100
56	32
59	15
73	18
74	110
