Mass spectrum: BIS(4-METHOXYMETHYLOXY)BENZYL ETHER; EI-MS
Formula: C18H22O5
Exact mass: 318.14672
Instrument type: EI-MS
m/z	relative intensity
30	19
45	999
46	31
51	2
52	17
77	37
78	34
89	3
90	34
91	22
106	63
107	241
108	72
109	16
110	16
119	17
120	140
121	200
122	42
123	17
135	33
136	33
137	23
148	18
151	250
152	181
153	23
154	16
167	75
168	27
180	34
182	2
274	19
318	18
348	18
