Mass spectrum: 4-HYDROXYACETANILIDE; EI-MS
Name: ACETAMINOPHENE
Formula: C8H9NO2
Exact mass: 151.06333
Instrument type: EI-MS
m/z	relative intensity
43	60
80	95
81	60
82	14
108	71
109	999
110	76
151	346
152	37
