Mass spectrum: META TOLUNITRILE; EI-MS
Name: 1-METHYL-3-CYANOBENZENE
Formula: C8H7N
Exact mass: 117.05785
Instrument type: EI-MS
m/z	relative intensity
26	16
27	55
37	45
38	78
39	242
40	26
41	16
50	83
51	96
52	34
57.5	21
58	13
58.5	34
61	34
62	74
63	169
64	77
65	40
74	13
75	34
76	30
77	16
88	25
89	234
90	412
91	53
116	629
117	999
118	90
