Mass spectrum: 2-METHYL-2-BROMOHEPT-6-EN-3-ONE; EI-MS
Formula: C8H13BrO
Exact mass: 204.01498
Instrument type: EI-MS
m/z	relative intensity
42	56
43	41
53	28
54	19
55	927
56	42
67	11
69	33
70	130
71	11
81	10
82	51
83	999
84	58
97	12
121	35
123	32
125	21
149	12
151	14
204	15
206	14
