Mass spectrum: 2-PHENYLETHANOL; EI-MS
Name: PHENYLETHYL ALCOHOL
Formula: C8H10O
Exact mass: 122.07316
Instrument type: EI-MS
m/z	relative intensity
18	22
27	23
29	26
31	83
38	16
39	106
41	22
43	11
50	40
51	83
52	20
62	19
63	63
64	16
65	182
66	11
77	54
78	43
89	29
90	16
91	999
92	553
93	41
103	22
104	23
122	235
123	18
