Mass spectrum: DODECANOIC ACID; EI-MS
Formula: C12H24O2
Exact mass: 200.17763
Instrument type: EI-MS
m/z	relative intensity
15	20
27	185
29	380
31	21
39	125
40	31
41	690
42	125
43	665
44	22
45	270
53	50
54	36
55	507
56	106
57	487
58	21
59	44
60	999
61	145
65	12
67	41
68	33
69	198
70	61
71	208
72	17
73	982
74	67
77	15
79	17
81	28
82	26
83	114
84	72
85	195
86	22
87	107
88	27
89	25
91	12
96	24
97	72
98	63
99	45
101	78
102	25
103	18
110	15
111	37
112	25
115	107
116	18
117	13
129	193
130	23
138	33
140	34
141	22
143	41
157	148
158	20
171	50
200	158
201	23
