Mass spectrum: 2-HEXYLTHIOPHENE; EI-MS
Formula: C10H16S
Exact mass: 168.09727
Instrument type: EI-MS
m/z	relative intensity
27	29
29	80
39	19
41	85
42	10
43	109
45	59
53	59
55	31
56	10
57	20
58	10
65	10
67	22
69	10
77	20
78	11
79	10
84	73
85	40
86	10
87	10
95	10
96	21
97	999
98	449
99	128
100	19
109	130
110	21
111	90
112	10
125	21
135	10
139	21
168	200
169	20
170	11
