Mass spectrum: META-FLUOROBENZOIC ACID; EI-MS
Formula: C7H5FO2
Exact mass: 140.02736
Instrument type: EI-MS
m/z	relative intensity
27	10
28	28
31	21
37	27
38	26
39	36
45	43
47.5	23
49	19
50	132
51	59
56	21
57	41
61	18
61.5	21
62	21
63	26
68	48
69	67
70	59
73	16
74	64
75	254
76	30
83	21
92	15
93	16
94	58
95	727
96	85
112	22
123	999
124	74
140	783
141	59
