Mass spectrum: ACETALDEHYDE ISOPENTYL ISOPROPYL ACETAL; EI-MS
Name: ACETALDEHYDE ISOAMYL ISOPROPYL ACETAL
Formula: C10H22O2
Exact mass: 174.16198
Instrument type: EI-MS
m/z	relative intensity
15	18
27	139
29	79
31	2
39	118
41	247
42	80
43	85
44	47
45	999
46	21
53	1
55	129
56	13
57	12
58	2
59	13
61	11
69	85
70	2
71	886
72	65
87	965
88	5
89	11
115	157
116	11
117	9
159	162
160	18
