Mass spectrum: 2-(2-ISOPROPOXYCARBONYLETHYL)-6-HYDROXY-2,5,7,8-TETRAMETHYL-2H-1-BENZOPYRAN; EI-MS
Formula: C19H28O4
Exact mass: 320.19876
Instrument type: EI-MS
m/z	relative intensity
27	16
28	31
29	8
31	1
32	8
39	16
41	50
42	0
43	81
51	8
52	6
53	2
54	5
55	31
57	3
59	0
65	6
66	3
67	19
69	2
70	3
71	6
73	9
77	2
78	6
79	19
80	5
81	2
82	5
83	13
85	3
91	3
92	3
93	13
95	16
96	1
97	38
102	5
103	5
104	0
105	11
107	14
109	5
110	1
111	3
113	3
115	16
117	1
119	3
121	47
122	14
130	3
131	8
132	6
135	28
136	5
137	22
139	5
146	3
147	0
148	3
149	14
151	31
152	5
153	6
159	6
161	11
162	1
163	14
164	447
165	999
166	11
167	3
175	19
176	5
177	3
178	3
179	3
189	22
190	1
202	5
203	45
204	16
205	6
206	5
217	14
218	14
231	2
232	52
233	3
243	20
245	1
259	16
260	64
261	153
262	2
263	3
277	9
278	172
279	3
320	419
321	91
322	11
