Mass spectrum: 1-PHENYL-2-TRIMETHYLSILYLCYCLOPROPANE; EI-MS
Formula: C12H18Si
Exact mass: 190.11778
Instrument type: EI-MS
m/z	relative intensity
45	38
59	61
65	10
72	13
73	999
74	88
75	16
115	26
121	16
135	16
145	11
159	12
175	33
190	85
191	22
