Mass spectrum: 7-METHOXYCOUMARIN; EI-MS
Formula: C10H8O3
Exact mass: 176.04734
Instrument type: EI-MS
m/z	relative intensity
38	26
39	30
44.5	19
50	48
51	137
53	15
62	42
63	9
64	17
69	40
74	37
76	3
77	148
79	16
88	15
89	5
90	26
91	29
105	77
120	2
133	574
134	51
148	532
149	6
176	999
177	113
178	13
