Mass spectrum: CHLOROFORM; EI-MS
Formula: CHCl3
Exact mass: 117.91438
Instrument type: EI-MS
m/z	relative intensity
35	42
36	17
37	15
47	210
48	99
49	71
50	33
82	35
83	999
84	34
85	643
86	11
87	103
117	11
118	18
119	11
120	15
