Mass spectrum: 4-METHYL-3-CYCLOHEXENYL 4-METHYL-3-PENTENYL KETONE; EI-MS
Formula: C14H22O
Exact mass: 206.16707
Instrument type: EI-MS
m/z	relative intensity
41	701
43	207
53	137
55	469
56	104
67	295
69	999
70	90
77	100
79	241
81	136
82	103
83	200
93	183
94	400
95	808
96	110
109	142
111	277
121	147
123	436
136	144
137	98
149	102
206	486
207	90
