Mass spectrum: SEC-BUTYL BROMIDE; EI-MS
Formula: C4H9Br
Exact mass: 135.98876
Instrument type: EI-MS
m/z	relative intensity
15	12
26	42
27	199
28	6
29	482
30	13
38	20
39	13
40	16
41	546
42	25
50	2
51	13
53	16
55	47
56	9
57	999
58	41
107	12
109	1
136	12
138	12
