Mass spectrum: (2S)-N-TERT-BUTOXYCARBONYL-2-(1-AZIDO-4-(2-TETRAHYDROPYRANYLOXY)BUTYL)PYRROLIDINE; EI-MS
Formula: C18H32N4O4
Exact mass: 368.24236
Instrument type: EI-MS
m/z	relative intensity
56	9
57	75
69	6
70	14
71	6
83	8
84	7
85	1
86	15
114	999
138	5
139	1
141	6
142	7
169	10
170	12
171	15
184	8
185	8
229	1
285	13
368	3
