Mass spectrum: N-ETHYL-PARA-TOLUENESULFONAMIDE; EI-MS
Formula: C9H13NO2S
Exact mass: 199.0667
Instrument type: EI-MS
m/z	relative intensity
27	28
28	39
29	17
30	2
39	163
41	63
42	23
43	5
44	295
51	64
59	36
63	9
64	42
65	338
77	52
89	9
90	191
91	999
92	125
106	4
120	59
136	28
155	355
184	15
199	141
