Mass spectrum: UNDECANAL; EI-MS
Formula: C11H22O
Exact mass: 170.16707
Instrument type: EI-MS
m/z	relative intensity
15	20
27	441
29	577
30	13
39	241
41	989
42	232
43	999
44	430
45	134
51	18
53	70
54	149
55	645
56	387
57	742
58	50
66	50
67	245
68	354
69	313
70	227
71	280
72	62
79	22
80	17
81	211
82	486
83	193
84	159
85	134
86	23
95	178
96	182
97	149
98	65
99	26
109	73
110	82
111	15
123	33
124	78
126	148
127	12
142	29
