Mass spectrum: META BROMOTOLUENE; EI-MS
Formula: C7H7Br
Exact mass: 169.97311
Instrument type: EI-MS
m/z	relative intensity
27	15
37	13
38	33
39	132
41	25
43	25
44	20
45	46
50	60
51	51
61	20
62	53
63	132
64	33
65	316
66	17
89	127
90	98
91	999
92	77
169	45
170	543
171	84
172	527
173	39
