Mass spectrum: DIMETHYL CARBONATE; EI-MS
Formula: C3H6O3
Exact mass: 90.03169
Instrument type: EI-MS
m/z	relative intensity
15	999
16	22
29	313
30	30
31	781
33	136
45	876
46	18
47	21
59	388
60	49
61	29
62	40
90	35
91	18
