Mass spectrum: 2-CYCLOPENTEN-1-ONE; EI-MS
Formula: C5H6O
Exact mass: 82.04186
Instrument type: EI-MS
m/z	relative intensity
13	12
15	30
18	57
25	38
26	317
27	482
29	37
36	12
37	77
38	106
39	999
40	44
41	26
42	62
43	24
49	48
50	165
51	151
52	76
53	453
54	493
55	187
56	82
61	12
81	126
82	960
83	60
