Mass spectrum: 2,3,5-TRIMETHYLPYRAZINE; EI-MS
Formula: C7H10N2
Exact mass: 122.0844
Instrument type: EI-MS
m/z	relative intensity
15	29
26	23
27	112
28	54
37	11
38	51
39	252
40	129
41	48
42	999
43	20
50	19
51	50
52	65
53	82
54	94
66	13
80	21
81	135
107	10
121	14
122	476
123	42
