Mass spectrum: CYCLOHEXANECARBOXYLIC ACID METHYL ESTER; EI-MS
Formula: C8H14O2
Exact mass: 142.09938
Instrument type: EI-MS
m/z	relative intensity
50	26
53	93
54	106
55	999
56	53
61	53
65	126
67	19
68	200
69	120
74	40
75	4
78	26
79	66
81	186
82	29
83	773
84	66
87	986
88	7
99	26
100	53
101	160
109	5
110	293
111	266
113	213
114	5
127	106
142	280
143	53
