Mass spectrum: NAPHTHALENE; EI-MS
Formula: C10H8
Exact mass: 128.0626
Instrument type: EI-MS
m/z	relative intensity
49	26
50	121
51	184
52	22
62	29
63	89
64	175
65	95
73	26
74	73
75	76
76	70
77	74
78	40
86	17
87	14
98	17
99	11
100	23
101	87
102	80
125	41
126	147
127	630
128	999
129	127
