Mass spectrum: 1,3-DI(3,4-DIMETHOXYPHENYL)BENZO(F)QUINAZOLINE; EI-MS
Formula: C28H24N2O4
Exact mass: 452.17361
Instrument type: EI-MS
m/z	relative intensity
127	10
133	15
139	17
139.5	3
140	32
145	27
145.5	37
146	3
146.5	16
147	11
151	10
151.5	3
152	47
152.5	25
153	24
153.5	1
154	17
158	19
158.5	15
159	1
159.5	16
160	22
160.5	14
161	2
161.5	17
166	17
166.5	17
167	4
167.5	29
168	17
173	12
173.5	1
174	20
174.5	12
175	20
175.5	1
180	18
180.5	10
181	24
181.5	2
182	21
182.5	10
183	19
188	2
188.5	16
189	62
189.5	22
190	1
196.5	11
197	22
203	25
203.5	1
204	25
204.5	11
210	11
210.5	5
211	23
218	11
218.5	19
226	12
226.5	35
227	10
279	16
285	4
287	11
292	11
319	10
321	1
335	13
349	21
350	11
362	1
363	18
364	10
365	16
366	2
375	11
376	14
377	25
378	2
379	12
390	19
391	27
392	3
393	45
394	20
405	29
406	14
407	79
408	21
409	18
419	3
420	15
421	98
422	47
423	4
424	11
435	152
436	76
437	15
438	44
451	508
452	999
453	30
454	65
455	10
