Mass spectrum: 3,5-DIMETHYL-1-OCTYLPYRAZOLE; EI-MS
Formula: C13H24N2
Exact mass: 208.19395
Instrument type: EI-MS
m/z	relative intensity
26	19
27	90
28	163
29	11
39	98
40	32
41	292
42	15
43	75
52	11
53	38
54	4
55	148
56	48
57	20
65	2
66	21
67	33
68	54
69	8
70	14
79	17
80	22
81	3
82	30
83	16
94	10
95	12
96	435
97	197
98	13
108	3
109	999
110	244
111	19
123	5
124	82
137	41
138	13
151	19
152	25
165	166
166	24
179	5
193	37
207	19
208	134
209	23
