Mass spectrum: 2-METHYL-1-PROPANOL; EI-MS
Name: ISOBUTYL ALCOHOL
Formula: C4H10O
Exact mass: 74.07316
Instrument type: EI-MS
m/z	relative intensity
15	20
26	13
27	257
28	19
29	118
31	424
33	589
38	14
39	108
40	26
41	561
42	586
43	999
44	38
45	13
55	46
56	38
57	34
59	31
73	17
74	78
