Mass spectrum: 2-MERCAPTOPROPIONIC ACID METHYL ESTER; EI-MS
Formula: C4H8O2S
Exact mass: 120.0245
Instrument type: EI-MS
m/z	relative intensity
40	89
55	75
56	39
58	3
60	282
61	999
62	46
63	4
77	14
88	189
89	32
120	35
121	14
122	10
