Mass spectrum: PHENYLETHYLENE GLYCOL; EI-MS
Name: STYRENE GLYCOL
Formula: C8H10O2
Exact mass: 138.06808
Instrument type: EI-MS
m/z	relative intensity
15	12
27	47
28	35
29	113
30	17
31	103
32	10
38	18
39	72
41	13
43	19
50	66
51	237
52	52
53	33
62	13
63	39
65	29
74	19
75	16
76	13
77	646
78	123
79	886
80	50
89	24
90	10
91	55
105	85
106	38
107	999
108	66
138	41
