Mass spectrum: TRIETHYLENEGLYCOL DIMETHACRYLATE; EI-MS
Formula: C14H22O6
Exact mass: 286.14164
Instrument type: EI-MS
m/z	relative intensity
39	23
40	16
41	178
43	3
45	45
68	16
69	623
70	5
73	16
84	23
86	120
87	2
89	16
100	31
112	189
113	999
114	100
143	52
172	19
200	58
