Mass spectrum: ISOHALFORDIN; EI-MS
Formula: C14H12O6
Exact mass: 276.06339
Instrument type: EI-MS
m/z	relative intensity
91	40
119	40
147	110
162	60
175	40
190	120
233	450
247	40
261	100
276	999
277	180
