Mass spectrum: META-CHLOROBENZOIC ACID; EI-MS
Formula: C7H5ClO2
Exact mass: 155.99781
Instrument type: EI-MS
m/z	relative intensity
27	12
37	35
37.5	25
38	67
39	36
45	26
49	23
50	176
51	100
55.5	25
61	18
63	18
64	27
65	47
69.5	24
73	35
74	97
75	273
76	74
77	90
84	14
85	29
110	21
111	521
112	44
113	163
114	11
121	16
123	10
128	21
130	18
139	999
140	82
141	324
142	24
155	12
156	820
157	63
158	261
159	19
