Mass spectrum: TETRAHYDROFURFURYL ACETATE; EI-MS
Formula: C7H12O3
Exact mass: 144.07864
Instrument type: EI-MS
m/z	relative intensity
14	14
15	95
26	14
27	15
28	24
29	70
31	34
39	9
40	19
41	220
42	95
43	62
44	24
53	14
54	24
55	3
56	14
57	11
70	23
71	999
72	51
73	15
74	11
93	1
94	136
95	18
