Mass spectrum: PARA-ETHYL ANILINE; EI-MS
Formula: C8H11N
Exact mass: 121.08915
Instrument type: EI-MS
m/z	relative intensity
27	10
28	86
39	35
41	14
44	19
51	23
52	21
53	44
58.5	26
59.5	12
63	11
65	35
77	113
78	28
79	66
91	33
93	21
103	13
104	11
106	999
107	104
118	26
119	26
120	42
121	342
122	34
