Mass spectrum: 5-METHHYLFURFURAL; EI-MS
Name: 5-METHYL-2-FURANCARBOXALDEHYDE
Formula: C6H6O2
Exact mass: 110.03678
Instrument type: EI-MS
m/z	relative intensity
27	262
28	18
29	28
39	156
40	17
42	10
43	107
51	41
52	69
53	787
54	77
55	11
79	10
80	10
81	139
82	10
110	999
111	68
