Mass spectrum: 2-METHYLTHIOPROPIONIC ACID METHYL ESTER; EI-MS
Formula: C5H10O2S
Exact mass: 134.04015
Instrument type: EI-MS
m/z	relative intensity
40	227
44	17
46	17
47	21
49	35
55	59
56	41
57	5
60	17
75	999
76	47
77	5
87	17
88	257
134	329
135	11
