Mass spectrum: 7-ACETOXYFLAVANONE; EI-MS
Name: 7-ACETOXY-2-PHENYLCHROMAN-4-ONE
Formula: C17H14O4
Exact mass: 282.08921
Instrument type: EI-MS
m/z	relative intensity
28	67
31	27
39	26
43	53
51	117
52	36
63	53
69	3
77	128
78	121
79	47
80	4
91	25
103	180
104	427
105	4
107	33
108	213
136	999
137	19
149	35
162	28
163	600
164	4
223	39
239	507
240	660
241	8
281	25
282	520
283	71
