Mass spectrum: 3-PHENYLPROPYL HEXANOATE; EI-MS
Formula: C15H22O2
Exact mass: 234.16198
Instrument type: EI-MS
m/z	relative intensity
27	37
29	37
39	34
41	84
42	16
43	122
51	16
55	22
65	42
71	40
77	28
78	19
79	14
91	291
92	29
99	38
103	19
104	12
105	17
115	16
116	19
117	410
118	999
119	110
