Mass spectrum: 1,3-PROPANEDIOL; EI-MS
Formula: C3H8O2
Exact mass: 76.05243
Instrument type: EI-MS
m/z	relative intensity
14	27
15	93
19	195
26	85
27	358
28	999
29	480
30	165
31	901
39	67
40	40
41	117
42	57
43	187
44	55
45	191
46	94
47	36
53	31
55	50
56	42
57	573
58	515
59	40
