Mass spectrum: 3,7-DIMETHYL-8-OXO-2,6-OCTADIENYL ACETATE(E); EI-MS
Formula: C12H18O3
Exact mass: 210.12559
Instrument type: EI-MS
m/z	relative intensity
27	62
29	88
39	80
41	120
43	999
53	68
54	18
55	126
56	15
57	12
65	15
67	53
68	36
77	15
79	26
80	20
81	27
82	120
83	42
84	550
85	213
91	18
92	12
93	70
94	18
95	40
97	12
117	62
118	20
119	12
121	140
122	28
123	13
127	36
135	103
150	293
151	39
