Mass spectrum: DI-TERT-BUTYL MALONATE; EI-MS
Formula: C11H20O4
Exact mass: 216.13616
Instrument type: EI-MS
m/z	relative intensity
27	140
29	121
31	14
37	20
38	49
39	366
41	806
42	92
43	124
44	112
45	17
50	38
51	31
53	37
54	12
55	123
56	371
57	999
58	50
59	270
60	14
69	11
87	13
105	106
115	17
145	69
161	11
