Mass spectrum: 2,2'-BIQUINOLINE; EI-MS
Formula: C18H12N2
Exact mass: 256.10005
Instrument type: EI-MS
m/z	relative intensity
17	34
18	109
26	17
27	5
29	38
31	11
39	39
40	1
41	84
42	29
43	78
45	2
50	19
51	30
52	13
53	2
54	21
55	82
56	30
57	5
59	10
60	31
63	20
64	1
67	33
68	21
69	43
70	3
71	27
74	18
75	46
76	3
77	54
78	16
79	19
80	1
81	28
82	20
83	23
84	2
85	20
87	15
89	12
91	2
93	13
94	13
95	29
96	2
97	27
98	29
99	14
99.5	1
100	24
100.5	11
101	93
101.5	1
102	60
103	17
105	12
107	1
109	14
110	10
111	17
112	1
113	16
113.5	12
114	29
114.5	1
115	18
123	11
125	11
126	2
127	43
127.5	28
128	205
128.5	3
129	43
152	12
153	11
154	2
155	29
156	19
157	10
178	1
179	11
184	13
198	37
199	6
200	85
201	55
202	109
203	1
204	32
226	14
227	37
228	4
229	24
230	17
251	11
252	1
253	40
254	74
255	647
256	999
257	193
258	23
