Mass spectrum: 2-CHLORO-4-(ORTHO-CHLOROPHENYL)-2-SILABUTANE; EI-MS
Formula: C9H12Cl2Si
Exact mass: 218.00853
Instrument type: EI-MS
m/z	relative intensity
43	54
44	12
45	13
50	32
51	82
52	17
53	14
55	10
61	19
62	12
63	106
64	10
65	50
73	10
74	16
75	55
76	30
77	231
78	197
79	223
80	36
81	79
89	70
90	26
91	999
92	92
93	11
95	12
99	31
101	33
102	52
103	307
104	147
105	551
106	127
107	12
108	36
112	24
113	114
114	16
115	79
117	16
125	398
126	31
127	133
128	11
131	46
138	39
139	48
140	21
141	30
143	11
145	30
146	35
147	116
148	19
149	15
155	320
156	44
157	126
158	16
163	11
165	44
167	129
168	20
169	43
175	153
176	20
177	106
178	14
179	27
181	11
182	26
183	130
184	29
185	52
189	18
191	13
203	29
205	19
217	13
218	86
219	22
220	61
221	12
222	12
