Mass spectrum: 1,1-DIISOPROPYLHYDRAZINE; EI-MS
Formula: C6H16N2
Exact mass: 116.13135
Instrument type: EI-MS
m/z	relative intensity
27	144
28	87
29	52
30	6
31	39
39	78
40	17
41	17
42	261
43	211
44	73
54	1
55	14
56	193
57	36
58	5
59	999
60	36
70	9
73	4
84	14
101	389
102	27
116	19
117	22
