Mass spectrum: 4-BENZYLOXY-3-HYDROXY-2-METHYL-1-BUTENE; EI-MS
Name: 1-BENZYLOXY-3-METHYL-3-BUTEN-2-OL
Formula: C12H16O2
Exact mass: 192.11503
Instrument type: EI-MS
m/z	relative intensity
27	20
28	40
29	14
39	5
41	52
43	92
51	16
53	1
63	12
65	88
68	59
71	26
72	10
77	15
79	10
84	3
86	10
89	13
90	10
91	999
92	348
93	21
105	17
107	4
144	26
