Mass spectrum: METHYL HEXANOATE; EI-MS
Formula: C7H14O2
Exact mass: 130.09938
Instrument type: EI-MS
m/z	relative intensity
39	190
40	50
41	310
42	260
43	750
44	60
55	490
56	50
57	120
58	50
59	500
68	80
69	70
71	200
72	50
74	999
75	90
87	680
88	80
99	390
101	220
130	60
