Mass spectrum: 3-(4-METHYLBENZOYL)INDOLE; EI-MS
Name: 3-INDOLYL P-TOLYL KETONE
Formula: C16H13NO
Exact mass: 235.09971
Instrument type: EI-MS
m/z	relative intensity
39	34
41	33
43	46
44	1
45	18
55	36
57	41
63	4
65	73
69	29
71	11
83	1
88	11
89	238
90	30
91	12
103.5	28
115	28
116	238
117	1
119	19
143	18
144	999
145	9
178	13
206	30
207	19
220	3
234	34
235	438
236	62
