Mass spectrum: 2-HEXANOYLTHIOPHENE; EI-MS
Formula: C10H14OS
Exact mass: 182.07654
Instrument type: EI-MS
m/z	relative intensity
27	10
28	26
29	30
39	85
41	30
42	10
43	86
55	80
57	10
70	10
71	11
83	59
84	49
85	10
97	40
98	10
111	975
112	77
113	68
126	999
127	105
128	56
139	140
140	10
149	10
182	62
