Mass spectrum: ACETALDEHYDE DI-CIS-3-HEXENYL ACETAL; EI-MS
Formula: C14H26O2
Exact mass: 226.19328
Instrument type: EI-MS
m/z	relative intensity
27	28
29	38
39	48
40	14
41	231
42	18
43	37
45	20
53	32
54	27
55	552
56	31
58	19
67	81
68	13
69	34
81	12
82	64
83	999
84	67
127	343
128	29
