Mass spectrum: 5-(PARA-PHENOXYPHENYL)PENTANAL; EI-MS
Formula: C17H18O2
Exact mass: 254.13068
Instrument type: EI-MS
m/z	relative intensity
39	61
41	35
43	15
50	28
51	159
52	21
53	14
55	25
63	27
64	14
65	46
71	14
75	10
76	19
77	340
78	50
79	10
89	38
90	27
91	90
92	11
103	20
104	20
107	118
108	11
115	70
116	40
117	50
127	20
128	28
129	29
133	11
141	14
143	12
152	14
153	27
154	18
155	43
165	13
170	13
181	16
183	999
184	181
185	17
196	20
197	15
209	24
210	18
254	355
255	72
