Mass spectrum: METHYPRYLON; EI-MS
Formula: C10H17NO2
Exact mass: 183.12593
Instrument type: EI-MS
m/z	relative intensity
51	9
52	9
53	69
54	3
55	339
56	89
57	79
58	4
83	539
84	59
85	59
86	5
95	9
96	9
97	79
98	47
99	49
140	769
141	79
142	1
154	79
155	999
156	24
168	7
169	9
183	29
