Mass spectrum: 9-METHYLTHIONONANENITRILE; EI-MS
Formula: C10H19NS
Exact mass: 185.12382
Instrument type: EI-MS
m/z	relative intensity
41	105
48	70
55	415
61	999
62	130
63	105
69	250
75	15
81	185
82	235
83	330
94	18
95	125
96	990
97	195
108	20
109	90
110	350
122	115
138	43
170	115
185	400
186	75
187	20
