Mass spectrum: 3,8,9-TRIMETHOXYPTEROCARPAN; EI-MS
Formula: C18H18O5
Exact mass: 314.11542
Instrument type: EI-MS
m/z	relative intensity
115	50
127	40
133	50
135	40
137	40
148	260
161	90
178	100
191	40
211	50
271	40
299	230
313	130
314	999
315	170
