Mass spectrum: (E)-PENTAMETHYLDISILANYLTRIMETHYLSILYLETHYLENE; EI-MS
Formula: C10H26Si3
Exact mass: 230.13423
Instrument type: EI-MS
m/z	relative intensity
43	30
45	71
59	41
73	999
75	34
83	27
85	12
117	15
127	51
131	23
141	84
142	29
155	22
156	24
157	212
158	44
159	19
215	20
230	74
231	20
