Mass spectrum: 4-METHYL-2-(4-METHYL-6-OXO-1-OXAHEXYL)TETRAHYDRO-2H-PYRAN; EI-MS
Formula: C12H22O3
Exact mass: 214.15689
Instrument type: EI-MS
m/z	relative intensity
27	25
28	15
29	40
31	25
39	15
41	106
42	37
43	230
44	12
45	28
53	15
55	140
56	15
57	63
58	10
59	32
67	18
69	93
70	72
81	98
82	10
83	33
84	47
98	33
99	999
100	82
101	15
