Mass spectrum: 3-(BENZYLAMINO)PENTADECANOIC ACID; EI-MS
Formula: C22H37NO2
Exact mass: 347.28243
Instrument type: EI-MS
m/z	relative intensity
55	90
92	87
106	296
107	161
57	80
132	230
133	936
134	102
79	81
146	158
178	724
179	81
91	999
274	111
