Mass spectrum: 1,3-DIPHENYLACETONE; EI-MS
Formula: C15H14O
Exact mass: 210.10447
Instrument type: EI-MS
m/z	relative intensity
39	37
51	15
63	25
65	155
89	30
90	30
91	999
92	116
118	133
119	240
120	15
210	115
211	17
