Mass spectrum: PROPANAL DIETHYL ACETAL; EI-MS
Formula: C7H16O2
Exact mass: 132.11503
Instrument type: EI-MS
m/z	relative intensity
15	24
19	16
26	26
27	228
29	387
30	30
31	301
39	28
41	112
42	16
43	48
45	84
47	622
57	175
58	97
59	999
60	28
75	362
76	12
78	13
86	45
87	674
88	37
103	482
104	21
