Mass spectrum: CHLOROFORMIC ACID 2-METHOXYETHYL ESTER; EI-MS
Name: 2-METHOXYETHYL CHLOROFORMATE
Formula: C4H7ClO3
Exact mass: 138.00837
Instrument type: EI-MS
m/z	relative intensity
14	34
15	346
26	75
27	339
28	131
29	509
30	84
31	172
33	20
35	20
42	51
43	239
44	55
45	999
46	25
49	76
50	22
51	29
58	313
59	396
62	117
63	237
64	45
65	77
77	26
89	24
103	14
