Mass spectrum: DIETHYL OXALATE; EI-MS
Formula: C6H10O4
Exact mass: 146.05791
Instrument type: EI-MS
m/z	relative intensity
15	14
26	22
27	198
28	93
29	999
30	49
31	131
43	50
45	135
46	11
56	12
57	18
59	11
73	21
74	105
75	17
