Mass spectrum: ANISOLE; EI-MS
Formula: C7H8O
Exact mass: 108.05751
Instrument type: EI-MS
m/z	relative intensity
15	53
26	13
27	28
29	20
37	31
38	86
39	336
40	12
49	10
50	108
51	192
52	41
53	15
61	12
62	35
63	109
64	51
65	674
66	42
74	36
75	15
76	13
77	175
78	565
79	139
80	13
92	15
93	139
107	18
108	999
109	78
