Mass spectrum: EXO-7-METHYLBICYCLO(4.1.0)HEPT-2-EN-ENDO-7-PROPANENITRILE; EI-MS
Formula: C11H15N
Exact mass: 161.12045
Instrument type: EI-MS
m/z	relative intensity
41	46
43	238
79	301
91	5
93	61
104	126
107	378
118	7
119	999
120	200
121	120
129	6
132	49
133	67
134	109
144	17
145	45
146	153
160	139
161	13
162	14
