Mass spectrum: N-(PHENYLACETHYL)GLYCINE METHYL ESTER; EI-MS
Name: PHENACETURIC ACID METHYL ESTER
Formula: C11H13NO3
Exact mass: 207.08954
Instrument type: EI-MS
m/z	relative intensity
39	96
42	16
44	96
50	3
51	59
56	231
63	59
64	2
65	215
77	26
88	612
89	10
90	86
91	999
92	817
93	7
116	247
117	21
118	381
119	5
120	16
148	59
176	43
207	33
208	37
