Mass spectrum: HEXYL PROPIONATE; EI-MS
Formula: C9H18O2
Exact mass: 158.13068
Instrument type: EI-MS
m/z	relative intensity
26	19
27	246
28	80
29	552
30	13
31	26
39	84
40	16
41	251
42	208
43	427
44	18
53	15
54	18
55	224
56	467
57	999
58	31
69	149
72	14
74	19
75	429
76	14
83	32
84	272
85	35
87	48
99	13
