Mass spectrum: TERT-BUTYLDIMETHYLSILYLAMINE; EI-MS
Formula: C6H17NSi
Exact mass: 131.11303
Instrument type: EI-MS
m/z	relative intensity
41	17
43	37
44	42
45	19
46	27
58	15
59	25
60	17
73	28
74	999
75	53
76	34
116	13
131	20
