Mass spectrum: TRIMETHYLENE GLYCOL; EI-MS
Formula: C3H8O2
Exact mass: 76.05243
Instrument type: EI-MS
m/z	relative intensity
14	17
15	57
26	57
27	246
28	999
29	229
30	159
31	647
39	32
40	35
41	32
42	27
43	127
44	27
45	162
46	105
47	30
49	10
56	17
57	12
58	450
59	754
60	37
75	10
76	5
