Mass spectrum: PROPYL VALERATE; EI-MS
Formula: C8H16O2
Exact mass: 144.11503
Instrument type: EI-MS
m/z	relative intensity
15	16
26	24
27	339
29	325
30	13
31	43
39	159
41	459
42	196
43	403
44	11
45	24
53	11
55	85
56	69
57	544
58	21
59	76
60	345
61	297
73	189
74	15
75	44
83	11
85	999
86	56
87	28
102	114
103	683
104	34
115	46
