Mass spectrum: N,N-DIMETHYLANILINE; EI-MS
Formula: C8H11N
Exact mass: 121.08915
Instrument type: EI-MS
m/z	relative intensity
42	86
51	111
60	92
77	23
104	100
105	134
120	999
121	745
