Mass spectrum: BUTYL ISOBUTYRATE; EI-MS
Formula: C8H16O2
Exact mass: 144.11503
Instrument type: EI-MS
m/z	relative intensity
15	18
26	23
27	322
28	109
29	354
31	21
38	10
39	167
40	26
41	580
42	91
43	999
44	31
45	13
55	86
56	437
57	416
58	17
70	10
71	780
72	33
73	56
88	26
89	600
90	22
101	39
