Mass spectrum: 2,3-DIMETHYL-5-NITRO-1,7-TRIMETHYLENEINDOLE; EI-MS
Formula: C13H14N2O2
Exact mass: 230.10553
Instrument type: EI-MS
m/z	relative intensity
45	470
53	40
54	40
55	52
56	109
57	500
60	227
67	12
68	83
69	300
70	91
71	21
73	179
77	45
79	35
81	33
82	58
83	172
84	53
85	9
91	33
93	38
95	88
96	4
97	117
98	35
109	33
111	4
115	66
129	48
137	38
156	8
167	30
168	38
169	38
182	6
183	152
184	477
185	56
200	4
229	101
230	999
231	148
