Mass spectrum: ELEMOL; EI-MS
Formula: C15H26O
Exact mass: 222.19837
Instrument type: EI-MS
m/z	relative intensity
51	32
52	21
53	205
54	24
55	350
56	26
57	69
58	15
59	954
60	31
65	79
66	26
67	422
68	381
69	336
70	38
71	121
72	18
77	170
78	32
79	412
80	199
81	692
82	152
83	84
84	47
85	22
91	239
92	132
93	999
94	302
95	357
96	88
97	32
103	14
105	350
106	93
107	557
108	284
109	201
110	29
111	15
115	12
117	17
118	14
119	295
120	101
121	474
122	140
123	146
124	20
131	15
133	187
134	102
135	275
136	148
137	32
139	12
145	15
147	188
148	105
149	133
150	20
151	10
160	14
161	544
162	122
163	110
164	54
175	44
176	19
189	233
190	35
204	139
205	27
