Mass spectrum: 4-ISOPROPYLBICYCLO(3.2.2)NONA-3,6-DIEN-2-ONE; EI-MS
Formula: C12H16O
Exact mass: 176.12012
Instrument type: EI-MS
m/z	relative intensity
55	20
58	80
83	11
91	3
92	39
98	14
104	22
105	4
115	50
117	13
118	22
121	1
132	141
133	999
134	50
135	1
143	277
144	33
158	111
159	5
161	19
176	510
177	50
