Mass spectrum: ETHYL 1,2,7-TRIMETHYL-6-NITROINDOLE-3-CARBOXYLATE; EI-MS
Formula: C14H16N2O4
Exact mass: 276.11101
Instrument type: EI-MS
m/z	relative intensity
39	141
41	101
42	34
43	28
45	12
51	31
52	11
53	1
54	21
55	146
56	131
57	18
67	41
68	11
69	191
71	16
77	34
78	11
79	11
81	11
82	37
83	81
84	17
90	1
91	25
92	15
93	11
95	4
96	12
97	10
98	18
99	4
103	41
111	34
115	56
116	6
117	121
118	31
142	72
143	14
157	221
158	49
185	284
186	3
203	202
213	122
214	13
230	11
231	561
259	873
276	999
277	133
