Mass spectrum: PARA BROMOTOLUENE; EI-MS
Formula: C7H7Br
Exact mass: 169.97311
Instrument type: EI-MS
m/z	relative intensity
27	13
37	11
38	31
39	120
50	65
51	45
61	15
62	45
63	116
64	22
65	196
89	102
90	76
91	999
92	71
169	33
170	236
171	49
172	227
173	13
