Mass spectrum: ETHYL 2,4,6-TRIMETHYLBENZOATE; EI-MS
Formula: C12H16O2
Exact mass: 192.11503
Instrument type: EI-MS
m/z	relative intensity
27	39
29	41
39	38
41	6
43	14
51	31
52	12
53	2
63	17
65	35
77	77
78	3
79	31
91	146
92	15
93	1
103	52
104	31
105	28
107	1
115	47
116	11
117	77
118	7
119	202
120	31
146	755
147	999
148	122
149	13
163	210
164	5
177	27
192	523
193	70
