Mass spectrum: 2-PYRIDINECARBOXYLIC ACID METHYL ESTER; EI-MS
Name: PICOLINIC ACID METHYL ESTER
Formula: C7H7NO2
Exact mass: 137.04768
Instrument type: EI-MS
m/z	relative intensity
49	14
50	88
51	313
52	14
53	19
65	14
66	14
76	2
77	14
78	770
79	999
80	6
106	126
107	356
108	26
137	52
