Mass spectrum: FLUORENE; EI-MS
Formula: C13H10
Exact mass: 166.07825
Instrument type: EI-MS
m/z	relative intensity
17	11
27	22
38	26
39	77
41	11
50	61
51	53
52	12
61	16
62	64
63	123
64	13
65	14
69	11
70	75
74	60
75	42
76	15
77	12
81	27
82	79
83	114
85	11
86	47
87	64
88	19
89	45
98	23
99	12
110	19
111	19
113	33
115	65
126	14
137	19
138	11
139	123
140	13
162	18
163	140
164	103
165	892
166	999
167	117
