Mass spectrum: 9-ETHYLPHENANTHRENE; EI-MS
Formula: C16H14
Exact mass: 206.10955
Instrument type: EI-MS
m/z	relative intensity
103	5
152	8
165	166
166	22
176	16
177	14
178	40
179	10
189	125
190	71
191	999
192	168
193	13
202	16
203	41
204	19
205	31
206	861
207	139
208	11
