Mass spectrum: ALLYLBENZENE; EI-MS
Formula: C9H10
Exact mass: 118.07825
Instrument type: EI-MS
m/z	relative intensity
50	34
51	85
52	21
57	14
58	68
62	20
63	56
64	13
65	99
74	12
75	12
76	11
77	52
78	62
89	47
90	23
91	339
92	32
102	16
103	79
115	271
116	74
117	999
118	830
119	80
