Mass spectrum: 2-(2,3-DIHYDROXYBUTOXY)-N-(2-(DIETHYLAMINO)ETHYL)-3-PYRIDINECARBOXAMIDE; EI-MS
Formula: C16H27N3O4
Exact mass: 325.20016
Instrument type: EI-MS
m/z	relative intensity
44	4
57	8
58	24
70	6
71	13
72	4
84	9
85	8
86	999
87	66
97	4
99	130
100	17
113	2
122	9
141	2
165	11
207	5
221	6
281	2
282	4
283	1
