Mass spectrum: ALLYL CYANIDE; EI-MS
Name: 3-BUTENENITRILE
Formula: C4H5N
Exact mass: 67.0422
Instrument type: EI-MS
m/z	relative intensity
14	11
15	17
25	14
26	56
27	238
28	52
32.5	16
36	15
37	104
38	136
39	365
40	198
41	999
42	28
50	14
51	23
53	75
62	13
63	29
64	71
65	20
66	130
67	440
68	23
