Mass spectrum: EXO-NORBORNEOL; EI-MS
Name: EXO-BICYCLO(2.2.1)HEPTAN-2-OL
Formula: C7H12O
Exact mass: 112.08882
Instrument type: EI-MS
m/z	relative intensity
42	12
43	20
44	16
45	36
54	13
55	37
56	53
57	86
58	34
66	431
67	201
68	371
69	31
70	74
71	43
78	12
79	443
80	41
81	65
82	16
83	78
84	47
93	26
94	999
95	86
96	11
97	53
111	14
112	31
