Mass spectrum: 4-AMINOBENZYL CYANIDE; EI-MS
Formula: C8H8N2
Exact mass: 132.06875
Instrument type: EI-MS
m/z	relative intensity
18	11
27	16
28	61
38	10
39	41
40	11
41	22
50	23
51	60
52	51
53	23
54	19
62	11
63	34
64	21
65	45
66	29
75	12
76	32
77	137
78	77
79	24
80	16
89	11
91	18
93	10
102	15
103	23
104	214
105	96
106	133
107	11
116	13
131	862
132	999
133	99
