Mass spectrum: 1-ISOTHIOCYANATO-2-PHENYLETHANE (1,1,2,2-D4); EI-MS
Formula: C9H9NS
Exact mass: 163.04557
Instrument type: EI-MS
m/z	relative intensity
39	56
40	71
41	55
42	9
43	26
44	7
46	17
50	25
51	67
52	37
53	28
54	12
58	7
63	16
64	30
65	28
66	82
67	76
68	11
74	55
76	9
77	19
78	23
79	47
80	46
81	25
82	40
83	25
90	10
91	17
92	22
93	999
94	79
105	11
106	20
107	21
108	10
109	135
110	14
137	13
151	9
166	20
167	481
168	55
169	29
