Mass spectrum: GERANIOL; EI-MS
Name: (E)-3,7-DIMETHYL-2,6-OCTADIEN-1-OL
Formula: C10H18O
Exact mass: 154.13577
Instrument type: EI-MS
m/z	relative intensity
55	66
57	53
68	274
69	999
80	85
84	107
92	42
93	182
111	74
121	58
123	124
136	41
