Mass spectrum: 2-ETHOXYETHYLAMINE; EI-MS
Name: 2-AMINOETHYL ETHYL ETHER
Formula: C4H11NO
Exact mass: 89.08406
Instrument type: EI-MS
m/z	relative intensity
14	16
15	53
17	12
18	73
26	40
27	142
28	143
29	130
30	999
31	103
41	35
42	100
43	61
44	81
45	191
59	12
60	10
