Mass spectrum: 4-4'-DICHLOROBIPHENYL; EI-MS
Formula: C12H8Cl2
Exact mass: 222.00031
Instrument type: EI-MS
m/z	relative intensity
28	34
51	27
63	30
74	2
75	80
76	75
85	30
93	8
94	33
105	81
111	63
112	4
126	29
150	58
151	90
152	40
153	57
186	70
188	55
222	999
223	131
224	663
225	85
226	116
