Mass spectrum: 5-ACETYL-2,4-DIMETHYLTHIAZOLE; EI-MS
Formula: C7H9NOS
Exact mass: 155.04048
Instrument type: EI-MS
m/z	relative intensity
39	10
42	69
43	999
44	39
45	111
59	12
70	10
71	451
72	340
73	38
74	19
84	10
85	10
86	20
90	29
112	359
113	183
114	186
115	10
140	529
141	140
142	81
155	490
156	157
157	78
