Mass spectrum: 4-(2-HYDROXY-5-NITROPHENYL)PYRIMIDINE; EI-MS
Name: 4-NITRO-2-(4-PYRIMIDINYL)PHENOL
Formula: C10H7N3O3
Exact mass: 217.04874
Instrument type: EI-MS
m/z	relative intensity
53	24
54	15
61	8
62	4
63	81
64	15
65	14
66	1
71	14
71.5	9
74	9
75	1
77	14
78	15
79	39
80	1
83	22
85	13
86	10
87	1
88	20
89	88
90	35
91	1
92	5
104	8
105	28
115	1
116	103
117	22
118	7
131	1
141	8
142	44
143	133
144	3
149	7
159	8
170	14
171	6
172	10
187	114
188	14
215	1
216	24
217	999
218	105
