Mass spectrum: PHENYL ISOCYANATE; EI-MS
Formula: C7H5NO
Exact mass: 119.03711
Instrument type: EI-MS
m/z	relative intensity
45	24
50	45
51	57
52	35
59	35
61	14
62	25
63	89
64	264
65	51
77	10
90	21
91	410
92	28
119	999
120	87
