Mass spectrum: CYCLOHEXYL SALICYLATE; EI-MS
Formula: C13H16O3
Exact mass: 220.10994
Instrument type: EI-MS
m/z	relative intensity
27	74
29	24
38	14
39	20
41	244
42	19
43	18
51	1
53	49
54	82
55	261
56	1
63	40
64	44
65	161
66	2
67	184
79	14
81	41
82	5
83	38
92	137
93	70
120	999
121	331
122	23
138	649
139	10
220	70
221	11
