Mass spectrum: ETHYLHYDRAZONE ACETONE; EI-MS
Name: ACETONE ETHYLHYDRAZONE
Formula: C5H12N2
Exact mass: 100.10005
Instrument type: EI-MS
m/z	relative intensity
28	130
29	104
30	130
31	2
38	8
39	91
40	35
41	11
42	156
43	53
44	156
45	2
54	34
55	22
56	999
57	7
58	19
71	47
72	42
85	64
86	39
99	35
100	403
101	44
