Mass spectrum: 2-BENZYL IMIDAZOLINE; EI-MS
Formula: C10H12N2
Exact mass: 160.10005
Instrument type: EI-MS
m/z	relative intensity
160	200
159	480
132	60
131	190
118	30
103	70
92	110
91	999
90	60
89	90
81	70
77	90
65	210
63	80
51	120
42	90
41	70
