Mass spectrum: 4-METHYL-2-PENTANOL; EI-MS
Formula: C6H14O
Exact mass: 102.10447
Instrument type: EI-MS
m/z	relative intensity
41	58
42	34
43	146
44	83
45	999
46	26
55	32
56	86
57	101
58	16
69	588
70	37
83	16
84	317
85	83
87	427
88	34
101	26
102	2
