Mass spectrum: 2-HYDROXYPYRIDINE; EI-MS
Formula: C5H5NO
Exact mass: 95.03711
Instrument type: EI-MS
m/z	relative intensity
26	38
27	32
29	18
37	6
38	124
39	400
40	184
41	21
42	48
49	64
50	64
51	2
52	32
53	14
64	18
65	1
66	88
67	536
68	56
78	1
94	13
95	999
96	56
