Mass spectrum: 2,4-DINITROANILINE; EI-MS
Formula: C6H5N3O4
Exact mass: 183.02801
Instrument type: EI-MS
m/z	relative intensity
51	226
52	999
53	175
54	51
58	75
61	77
62	191
63	392
64	455
65	152
66	98
67	40
75	21
76	42
77	28
78	63
79	121
80	35
89	30
90	63
91	301
92	61
93	26
95	21
107	84
153	72
183	110
