Mass spectrum: N-VANILLYLNONANAMIDE; EI-MS
Formula: C17H27NO3
Exact mass: 293.19909
Instrument type: EI-MS
m/z	relative intensity
72	11
110	10
122	27
124	1
136	51
137	999
138	142
139	1
150	28
151	245
152	116
153	4
164	16
178	38
194	24
195	36
196	39
208	27
294	74
