Mass spectrum: HEXACOSANE; EI-MS
Formula: C26H54
Exact mass: 366.42255
Instrument type: EI-MS
m/z	relative intensity
27	51
29	163
39	20
41	351
42	85
43	997
44	13
53	16
54	22
55	273
56	183
57	999
58	41
67	24
68	25
69	137
70	79
71	635
72	30
82	26
83	81
84	45
85	376
86	15
96	10
97	60
98	33
99	83
111	21
112	20
113	49
125	11
126	12
127	33
140	14
141	23
155	14
168	13
169	18
197	13
