Mass spectrum: ETHYL (3,5-DIMETHYL-4-METHYLTHIO)BENZOATE; EI-MS
Formula: C12H16O2S
Exact mass: 224.0871
Instrument type: EI-MS
m/z	relative intensity
26	14
27	98
29	171
39	8
41	27
43	32
44	22
45	19
47	20
50	23
51	76
52	2
53	48
59	74
61	11
62	2
63	67
64	17
65	68
67	2
69	30
70	14
71	23
74	2
75	23
76	20
77	181
78	6
79	50
82	28
89	28
90	2
91	223
92	45
93	28
97	2
102	34
103	110
104	48
105	11
106	18
107	53
109	15
111	2
115	19
117	33
118	24
119	3
120	14
121	86
122	13
123	2
131	16
132	28
133	43
134	7
135	185
136	140
137	98
138	2
139	12
147	11
149	57
150	4
151	72
152	21
153	17
163	6
164	18
165	40
177	37
178	1
179	852
180	133
181	138
182	2
196	232
197	28
198	12
209	9
210	12
224	999
225	147
226	58
