Mass spectrum: TETRAMETHYLAMMONIUM BROMIDE; EI-MS
Formula: C4H12BrN
Exact mass: 153.01531
Instrument type: EI-MS
m/z	relative intensity
15	310
18	570
30	140
42	4
58	999
59	460
74	140
79	0
80	20
94	400
