Mass spectrum: BETA-3-PHENYLTROPIDINE HYDROBROMIDE; EI-MS
Formula: C14H18BrN
Exact mass: 279.06226
Instrument type: EI-MS
m/z	relative intensity
36	45
39	30
41	30
42	16
43	17
44	30
50	30
51	4
52	18
53	18
54	18
55	2
56	23
57	37
63	27
65	2
67	17
68	17
70	30
72	3
75	17
76	30
77	67
78	2
81	17
82	42
83	17
84	2
85	49
89	21
91	45
94	8
96	30
102	33
103	27
104	3
115	103
116	21
127	54
128	12
129	57
141	67
142	70
143	4
152	23
153	27
154	45
155	0
157	21
167	27
168	23
169	2
170	999
171	391
172	49
184	3
198	27
199	166
200	30
