Mass spectrum: TETRADECANAL; EI-MS
Formula: C14H28O
Exact mass: 212.21402
Instrument type: EI-MS
m/z	relative intensity
41	128
42	98
43	518
44	590
45	371
54	131
55	262
56	534
57	367
59	33
67	754
68	705
69	344
70	377
71	410
78	180
81	367
82	999
83	354
84	213
85	66
87	141
91	62
93	197
94	164
95	305
96	410
97	266
98	121
99	331
104	197
106	102
107	33
109	266
110	10
118	62
121	131
123	128
135	36
137	82
139	66
141	226
142	164
144	128
147	216
149	33
152	164
153	190
154	190
162	102
168	289
169	128
172	161
178	131
179	164
194	190
195	125
