Mass spectrum: 1,3,5-TRIPHENYLPYRAZOLE; EI-MS
Formula: C21H16N2
Exact mass: 296.13135
Instrument type: EI-MS
m/z	relative intensity
27	23
28	44
39	28
41	3
42	12
43	51
50	13
51	10
52	15
63	28
64	44
65	2
76	15
77	309
78	29
89	6
90	36
91	66
105	30
115	1
116	33
133.5	28
134	16
146.5	2
147	28
147.5	16
148	38
165	14
166	27
177	24
178	32
179	1
180	55
189	37
190	52
191	6
192	162
193	44
266	13
267	5
269	17
281	24
293	27
294	6
295	609
296	999
297	232
298	30
