Mass spectrum: N-METHYLBENZAMIDE; EI-MS
Formula: C8H9NO
Exact mass: 135.06841
Instrument type: EI-MS
m/z	relative intensity
14	60
15	46
29	32
30	23
31	21
35	35
36	197
37	2
38	72
39	39
43	61
44	12
50	111
51	276
52	26
58	6
73	25
74	56
75	49
76	5
77	683
78	60
105	999
106	9
133	18
134	303
135	490
136	45
