Mass spectrum: 1-DICHLOROMETHYLSILYL-3-TRIMETHYLSILYLPROPANE; EI-MS
Formula: C7H18Cl2Si2
Exact mass: 228.03241
Instrument type: EI-MS
m/z	relative intensity
43	17
45	58
58	15
59	72
63	27
65	13
72	53
73	999
74	81
75	35
79	18
85	113
92	52
93	46
94	21
95	17
113	105
114	13
115	71
117	13
119	142
120	167
121	65
122	57
213	292
214	48
215	211
216	34
217	46
