Mass spectrum: 6-CHLORO-3,7-DIMETHYL-2,7-OCTADIENAL; EI-MS
Formula: C10H15ClO
Exact mass: 186.08114
Instrument type: EI-MS
m/z	relative intensity
27	319
28	103
29	285
36	5
38	41
39	572
40	131
41	999
42	74
43	334
50	39
51	11
52	59
53	534
54	166
55	51
56	106
57	78
59	41
63	5
65	130
66	63
67	733
68	71
69	428
70	39
71	115
75	9
77	177
78	35
79	321
80	12
81	551
82	450
83	305
84	73
85	44
89	101
90	193
91	25
92	110
93	307
94	157
95	68
96	84
97	836
98	55
102	18
103	63
104	74
105	190
106	9
107	301
108	93
109	473
110	7
115	33
117	85
118	237
119	6
120	96
121	205
122	93
123	16
124	84
129	22
130	27
131	2
132	39
133	126
135	171
136	2
142	74
143	21
144	33
150	5
151	216
152	26
157	20
171	13
173	52
