Mass spectrum: 2-ISOBUTYL-8-METHYL-1,2,3,4-TETRAHYDRO-GAMMA-CARBOLINE; EI-MS
Formula: C16H22N2
Exact mass: 242.1783
Instrument type: EI-MS
m/z	relative intensity
42	92
43	11
56	32
57	1
77	10
115	21
128	13
154	2
155	22
156	140
157	999
158	18
170	63
198	16
199	380
200	4
241	110
242	310
