Mass spectrum: GAMMA-CAPROLACTONE; EI-MS
Formula: C6H10O2
Exact mass: 114.06808
Instrument type: EI-MS
m/z	relative intensity
14	9
15	29
25	2
26	50
27	214
28	313
29	964
30	38
31	27
37	6
38	27
39	93
40	22
41	109
42	239
43	38
44	5
45	5
49	1
50	5
51	7
52	2
53	15
54	8
55	151
56	399
57	389
58	38
59	41
60	7
61	1
62	1
63	2
65	1
67	4
68	3
69	5
70	168
71	13
72	11
73	3
83	1
84	11
85	999
86	109
87	17
95	5
97	4
113	20
114	26
115	13
