Mass spectrum: METHYLHYDRAZONE ISOBUTYRALDEHYDE; EI-MS
Name: ISOBUTYRALDEHYDE METHYLHYDRAZONE
Formula: C5H12N2
Exact mass: 100.10005
Instrument type: EI-MS
m/z	relative intensity
26	40
27	250
28	616
29	38
30	977
31	108
32	329
37	1
38	27
39	235
40	42
41	54
42	409
43	365
44	326
45	15
51	14
52	20
53	24
54	8
55	64
56	299
57	696
58	20
59	17
68	57
69	56
70	13
71	124
72	99
83	11
85	75
86	42
99	30
100	999
101	123
