Mass spectrum: 3,5-BIS(2-HYDROXYETHYL)CYCLOPENTENE; EI-MS
Formula: C9H16O2
Exact mass: 156.11503
Instrument type: EI-MS
m/z	relative intensity
32	20
58	41
67	123
79	12
81	116
93	999
94	206
105	8
106	78
107	68
108	69
109	10
110	162
111	154
112	66
120	81
126	664
127	65
138	576
156	3
157	19
