Mass spectrum: N-ACETYLGLYCYLGLYCYLISOLEUCYLGLYCINE METHYL ESTER; EI-MS
Formula: C15H26N4O6
Exact mass: 358.18523
Instrument type: EI-MS
m/z	relative intensity
15	13
27	10
28	11
30	37
41	23
42	19
43	33
55	21
56	14
57	18
59	11
69	14
70	11
72	14
73	26
85	23
86	999
87	68
90	27
96	28
97	14
98	17
99	10
100	34
108	11
112	10
114	18
127	11
129	14
130	24
143	36
157	45
169	10
174	15
185	21
213	19
224	15
226	18
242	547
243	98
244	15
270	15
286	12
302	70
303	13
311	10
327	9
358	4
359	6
