Mass spectrum: BENZO(B)FLUORANTHENE; EI-MS
Name: 2,3-BENZFLUORANTHENE
Formula: C20H12
Exact mass: 252.0939
Instrument type: EI-MS
m/z	relative intensity
45	17
51	12
55	42
56	15
57	42
58	20
60	12
63	15
67	12
68	12
69	62
71	12
73	12
74	15
75	17
81	22
83	27
84	27
87	25
88	12
99	35
100	67
101	22
111	57
112	207
113	269
114	12
123	32
124	180
125	336
126	417
127	12
200	17
202	17
222	12
223	12
224	47
225	27
226	27
248	54
249	42
250	235
251	86
252	999
253	205
254	17
