Mass spectrum: 3,7-DIMETHYL-5-PHENYLAZOTROPOLONE; EI-MS
Formula: C15H14N2O2
Exact mass: 254.10553
Instrument type: EI-MS
m/z	relative intensity
51	65
53	65
55	35
65	7
77	999
78	100
91	140
92	3
93	100
105	260
106	30
121	18
131	60
149	145
150	30
254	59
255	100
