Mass spectrum: 3-METHYLENE-5,5-DIPHENYL-5-TRIMETHYLSILOXYPENTENE; EI-MS
Formula: C21H26OSi
Exact mass: 322.17529
Instrument type: EI-MS
m/z	relative intensity
45	60
47	13
53	13
59	19
73	695
74	61
75	110
77	31
91	46
105	27
112	18
115	16
125	24
128	15
141	15
155	15
165	29
178	15
191	16
202	13
215	17
217	18
231	16
232	39
239	23
255	999
256	232
257	62
