Mass spectrum: ORTHO-PHENYLENEDIAMINE; EI-MS
Name: ORTHO-DIAMINOBENZENE
Formula: C6H8N2
Exact mass: 108.06875
Instrument type: EI-MS
m/z	relative intensity
27	24
28	50
38	15
39	33
40	10
41	27
42	11
43	10
50	23
51	44
52	85
53	138
54	84
63	56
64	65
65	45
66	28
67	37
78	29
79	27
80	785
81	373
82	27
90	16
91	57
92	10
107	229
108	999
109	72
