Mass spectrum: HEXAMETHYLDISILOXANE; EI-MS
Formula: C6H18OSi2
Exact mass: 162.08962
Instrument type: EI-MS
m/z	relative intensity
51	14
52	51
58	18
59	130
66	144
67	20
72	12
73	178
74	30
75	22
87	15
103	12
105	10
117	15
131	50
133	20
147	999
148	165
149	80
