Mass spectrum: TRIBUTYL PHOSPHATE; EI-MS
Formula: C12H27O4P
Exact mass: 266.1647
Instrument type: EI-MS
m/z	relative intensity
43	57
45	37
56	303
81	43
82	41
99	999
111	35
113	25
125	95
127	5
137	63
153	31
155	500
156	2
167	22
211	643
212	44
267	45
