Mass spectrum: ETHYL PROPIONATE; EI-MS
Formula: C5H10O2
Exact mass: 102.06808
Instrument type: EI-MS
m/z	relative intensity
27	29
28	96
29	743
30	25
31	18
43	49
45	129
56	35
57	999
58	39
59	8
73	76
74	139
75	167
84	18
87	25
102	194
103	12
