Mass spectrum: ETHYLENE GLYCOL MONOHEXYL ETHER; EI-MS
Formula: C8H18O2
Exact mass: 146.13068
Instrument type: EI-MS
m/z	relative intensity
27	10
28	18
29	30
31	2
41	83
42	43
43	999
44	4
45	331
46	14
55	103
56	21
57	170
58	10
59	10
63	22
69	49
70	10
71	47
72	1
75	114
82	12
83	225
84	17
85	746
86	57
99	24
101	1
115	91
117	10
