Mass spectrum: MALONIC ACID; EI-MS
Formula: C3H4O4
Exact mass: 104.01096
Instrument type: EI-MS
m/z	relative intensity
12	28
13	25
14	32
15	10
16	31
17	23
18	35
22	2
28	80
29	27
36	26
41	3
42	60
43	363
44	999
45	39
60	336
92	23
