Mass spectrum: 2-METHYLPYRAZINE; EI-MS
Formula: C5H6N2
Exact mass: 94.0531
Instrument type: EI-MS
m/z	relative intensity
15	28
25	13
26	352
27	72
28	133
37	85
38	164
39	368
40	300
41	127
42	189
51	56
52	115
53	210
63	11
64	24
65	13
66	36
67	604
68	25
79	12
93	12
94	999
95	65
