Mass spectrum: 1,6-DIMETHYL-4-OXO-7,8-DIHYDRO-1H,4H,6H-PYRIDO(1,2-A)PYRIMIDINE-3-CARBOXYLIC ACID ETHYL ESTER; EI-MS
Formula: C13H18N2O3
Exact mass: 250.13174
Instrument type: EI-MS
m/z	relative intensity
65	40
66	30
67	114
68	11
80	110
81	110
82	220
83	14
84	70
94	50
95	100
96	6
107	50
108	70
109	40
110	13
133	60
135	40
136	140
147	9
148	190
149	190
150	130
163	15
175	50
176	50
177	90
189	11
196	60
203	130
204	70
205	15
207	70
209	80
221	130
235	25
236	40
249	320
250	999
251	160
