Mass spectrum: 4',5,7-TRIHYDROXY-3'-(3-METHYL-2-BUTENYL)ISOFLAVONE; EI-MS
Formula: C20H18O5
Exact mass: 338.11542
Instrument type: EI-MS
m/z	relative intensity
41	350
42	120
43	480
45	120
50	200
51	230
52	140
53	170
55	300
57	230
63	150
65	150
69	260
71	120
76	120
77	330
78	210
79	120
81	120
83	120
89	90
91	150
93	90
95	90
96	150
97	90
102	90
103	130
104	90
105	130
107	90
108	90
109	90
111	90
115	250
123	90
124	210
127	90
128	150
131	170
133	90
139	130
141	150
152	210
153	630
154	110
155	90
165	80
169	70
181	80
185	70
197	80
253	400
254	190
255	150
269	130
270	80
282	200
283	930
284	190
295	250
296	110
297	80
305	70
309	200
321	100
323	230
337	110
338	999
339	250
340	50
