Mass spectrum: DIHYDROBENZOFURAN; EI-MS
Formula: C8H8O
Exact mass: 120.05751
Instrument type: EI-MS
m/z	relative intensity
27	21
31	32
38	22
39	73
40	11
45	44
46	24
50	22
51	44
52	12
60	18
62	24
63	66
64	22
65	75
66	15
77	20
89	94
90	56
91	654
92	144
93	10
105	12
118	28
119	267
120	999
121	93
