Mass spectrum: PENTAERYTHRO-TRIMETHYL ETHER; EI-MS
Formula: C8H18O4
Exact mass: 178.12051
Instrument type: EI-MS
m/z	relative intensity
39	97
41	295
42	58
43	10
45	999
46	27
47	20
53	4
54	72
55	270
56	56
57	7
58	89
59	58
60	12
61	8
67	9
68	15
69	123
70	5
71	511
72	38
73	14
74	1
75	816
76	32
77	14
81	1
82	51
83	64
84	173
85	25
86	110
87	49
88	18
97	2
98	22
99	39
100	9
101	2
102	32
113	14
114	168
115	5
116	20
128	47
129	8
