Mass spectrum: 1-METHYLNAPHTHALENE; EI-MS
Formula: C11H10
Exact mass: 142.07825
Instrument type: EI-MS
m/z	relative intensity
40	52
41	14
42	42
43	155
44	60
49	11
50	51
51	58
52	12
56	13
57	143
58	106
61	18
62	55
63	84
64	21
65	36
68	12
69	128
70	187
71	159
74	36
75	34
76	26
77	24
86	19
87	24
88	26
89	58
90	16
91	59
102	13
113	24
114	66
115	364
116	40
126	14
138	25
139	102
140	174
141	921
142	999
143	120
