Mass spectrum: (2,4,6-TRI-TERT-BUTYLPHENYL)(DIFLUORO)METHYLSILANE; EI-MS
Name: 1,3,5-TRI-TERT-BUTYL-2-(DIFLUOROMETHYLSILYL)BENZENE
Formula: C19H32F2Si
Exact mass: 326.22413
Instrument type: EI-MS
m/z	relative intensity
43	13
55	20
57	450
58	21
77	11
81	31
91	14
115	11
128	12
129	11
131	11
227	14
231	12
255	999
256	212
257	57
270	80
271	18
311	19
326	43
327	11
