Mass spectrum: 2-NITROFLUORENE; EI-MS
Formula: C13H9NO2
Exact mass: 211.06333
Instrument type: EI-MS
m/z	relative intensity
43	11
44	12
50	38
51	44
62	43
63	108
65	15
69	46
70	32
74	39
75	39
76	29
77	14
81	43
82	63
86	27
87	43
88	16
89	35
98	14
111	12
113	25
115	72
126	18
127	15
137	23
138	18
139	99
140	12
150	19
151	44
152	118
153	84
161	13
162	54
163	324
164	486
165	999
166	142
167	11
181	61
194	308
195	59
210	27
211	735
212	109
