Mass spectrum: UNDECANE; EI-MS
Formula: C11H24
Exact mass: 156.1878
Instrument type: EI-MS
m/z	relative intensity
39	104
40	17
42	127
43	999
44	35
51	4
52	3
53	21
54	17
55	156
56	156
57	923
58	48
67	9
68	6
69	49
70	118
71	439
72	24
82	3
83	16
84	71
85	252
86	12
97	5
98	51
99	51
100	4
112	20
113	41
114	3
126	9
127	21
128	2
156	51
157	6
