Mass spectrum: 2,6-DIMETHYLQUINOLINE; EI-MS
Formula: C11H11N
Exact mass: 157.08915
Instrument type: EI-MS
m/z	relative intensity
27	14
39	40
41	17
50	30
51	53
63	70
65	61
75	13
76	11
77	71
89	70
102	10
103	21
115	160
116	65
127	51
128	70
141	49
142	132
156	462
157	999
158	103
159	11
