Mass spectrum: ISOBUTYL PARA TOLUATE; EI-MS
Name: PARA TOLUIC ACID ISOBUTYL ESTER
Formula: C12H16O2
Exact mass: 192.11503
Instrument type: EI-MS
m/z	relative intensity
27	13
29	28
39	49
41	58
43	11
51	11
55	7
56	76
57	11
63	24
65	138
89	32
90	18
91	382
92	56
93	50
119	999
120	87
136	191
137	381
138	28
