Mass spectrum: 2-TERT-BUTYLMERCAPTO-3,4-LUTIDINE; EI-MS
Formula: C11H17NS
Exact mass: 195.10817
Instrument type: EI-MS
m/z	relative intensity
29	60
32	80
39	60
41	8
57	70
77	60
93	60
94	1
95	140
106	260
124	30
138	1
139	999
140	120
141	60
180	0
195	60
196	7
