Mass spectrum: ACETOPHENONE; EI-MS
Formula: C8H8O
Exact mass: 120.05751
Instrument type: EI-MS
m/z	relative intensity
27	9
28	10
38	12
39	24
43	104
50	65
51	183
52	17
52.5	16
63	15
65	11
74	25
75	16
76	20
77	699
91	12
105	999
106	76
120	204
121	20
