Mass spectrum: SALICYLAMIDE; EI-MS
Formula: C7H7NO2
Exact mass: 137.04768
Instrument type: EI-MS
m/z	relative intensity
37	34
38	75
39	252
40	24
44	97
46	14
50	40
51	3
52	24
53	69
54.5	76
55	2
61	21
62	44
63	134
64	17
65	231
66	24
76	19
80	3
91	46
92	583
93	125
94	2
119	23
120	999
121	183
122	2
137	750
138	71
