Mass spectrum: 4-METHYL-2-(5-HYDROXY-3-METHYLPENTOXY)TETRAHYDRO-2H-PYRAN; EI-MS
Formula: C12H24O3
Exact mass: 216.17254
Instrument type: EI-MS
m/z	relative intensity
27	38
28	65
29	50
31	76
32	27
39	28
40	25
41	140
42	126
43	223
44	18
45	40
55	360
56	30
57	72
67	25
69	77
70	96
71	55
73	13
81	77
83	330
98	80
99	999
100	72
101	232
102	23
116	105
117	38
133	13
