Mass spectrum: CYCLOPENTYLMALONIC ACID BIS(TRIMETHYLSILYL) ESTER; EI-MS
Name: DI(TRIMETHYLSILYL) CYCLOPENTYLMALONATE
Formula: C14H28O4Si2
Exact mass: 316.15261
Instrument type: EI-MS
m/z	relative intensity
43	36
44	119
45	67
73	29
75	174
77	42
81	143
143	12
147	999
148	165
149	137
204	15
217	73
233	128
243	168
248	23
249	73
257	73
272	70
301	146
