Mass spectrum: TETRAETHYLAMMONIUM BROMIDE; EI-MS
Name: N,N,N-TRIETHYLETHANAMINIUM BROMIDE
Formula: C8H20BrN
Exact mass: 209.07791
Instrument type: EI-MS
m/z	relative intensity
29	280
42	320
44	280
56	4
58	280
70	140
72	140
79	6
80	34
86	999
100	26
101	0
108	28
130	14
