Mass spectrum: 3-PHENYLPROPIONIC ACID; EI-MS
Formula: C9H10O2
Exact mass: 150.06808
Instrument type: EI-MS
m/z	relative intensity
39	76
50	34
51	120
63	3
65	103
77	145
78	137
79	9
91	999
92	145
103	77
104	48
105	222
150	359
151	94
