Mass spectrum: ISOBUTYL PHENYLACETATE; EI-MS
Formula: C12H16O2
Exact mass: 192.11503
Instrument type: EI-MS
m/z	relative intensity
27	57
28	12
29	279
39	111
40	12
41	337
42	19
43	40
50	12
51	33
52	12
55	21
56	61
57	709
58	32
62	11
63	40
64	15
65	161
66	11
71	18
89	43
90	38
91	999
92	318
93	23
119	93
136	375
137	133
138	11
192	92
193	14
