Mass spectrum: 3,4-METHYLENEDIOXYPHENYL VINYL KETONE; EI-MS
Formula: C10H8O3
Exact mass: 176.04734
Instrument type: EI-MS
m/z	relative intensity
27	13
39	12
55	68
63	63
64	13
65	215
66	13
89	32
90	10
91	88
92	12
118	33
119	26
120	13
121	230
122	22
135	12
146	30
147	45
148	57
149	999
150	86
151	10
174	20
175	32
176	609
177	70
