Mass spectrum: (3R*,4R*,5R*)-3-ACETYLAMINO-5-ACETOXY-4-HEXANOLIDE; EI-MS
Formula: C10H15NO5
Exact mass: 229.09502
Instrument type: EI-MS
m/z	relative intensity
57	21
60	560
68	10
70	1
71	44
82	28
83	80
84	5
85	352
86	6
87	12
88	2
91	23
97	21
98	61
99	4
100	98
101	38
102	60
103	1
109	24
110	119
111	67
112	15
113	179
114	41
115	12
117	1
123	13
124	32
125	432
126	4
127	106
128	73
129	14
131	4
136	24
139	14
140	42
141	27
142	999
143	336
144	148
151	6
154	25
155	15
156	105
167	4
168	16
169	382
170	144
171	7
172	117
184	24
185	122
186	4
187	54
188	26
198	125
199	1
230	243
