Mass spectrum: 2-TRIMETHYLSILYLPROPENE; EI-MS
Formula: C6H14Si
Exact mass: 114.08648
Instrument type: EI-MS
m/z	relative intensity
42	16
43	130
45	502
46	13
53	17
55	25
57	12
58	25
59	713
60	34
67	13
72	49
73	999
74	376
75	48
83	13
86	97
99	554
100	63
101	22
114	85
115	11
