Mass spectrum: N-ACETYLPHENYLALANINE METHYL ESTER; EI-MS
Formula: C12H15NO3
Exact mass: 221.10519
Instrument type: EI-MS
m/z	relative intensity
33	17
43	158
60	10
88	567
89	24
91	217
92	38
102	21
103	26
104	16
117	25
118	26
119	25
120	282
121	30
130	29
131	204
132	23
144	15
161	122
162	999
163	115
221	3
