Mass spectrum: HEXAMETHYLENE IMINE; EI-MS
Formula: C6H13N
Exact mass: 99.1048
Instrument type: EI-MS
m/z	relative intensity
15	68
26	28
27	217
28	374
29	148
30	590
39	229
40	39
41	380
42	349
43	999
44	363
53	24
54	30
55	95
56	561
57	450
68	54
69	27
70	923
71	80
84	101
98	169
99	451
100	81
