Mass spectrum: 2-METHYLBENZOTHIOPYRAN-4-ONE; EI-MS
Name: 2-METHYLTHIOCHROMONE
Formula: C10H8OS
Exact mass: 176.02959
Instrument type: EI-MS
m/z	relative intensity
38	52
39	220
45	100
50	70
51	53
58	50
62	40
63	100
67	58
69	220
73	41
74	110
82	73
108	280
115	50
136	330
137	36
146	25
147	510
148	510
149	58
150	22
175	10
176	999
177	120
178	48
179	12
