Mass spectrum: ANDROSTA-4,6-DIENE-3,17-DIONE; EI-MS
Formula: C19H24O2
Exact mass: 284.17763
Instrument type: EI-MS
m/z	relative intensity
27	29
28	9
29	39
39	4
41	109
53	54
55	115
65	4
67	93
69	19
77	90
78	4
79	129
80	22
81	85
82	2
83	36
85	23
91	174
92	4
93	98
94	31
95	76
96	3
97	98
98	23
103	31
104	2
105	186
106	62
107	310
108	6
109	78
110	42
111	22
115	7
116	31
117	87
118	42
119	8
120	33
121	115
122	71
123	6
124	129
125	20
127	20
128	6
129	78
130	28
131	126
132	6
133	78
134	59
135	47
136	999
137	136
141	39
142	31
143	7
144	47
145	84
146	47
147	8
148	121
149	388
150	82
151	2
153	22
155	47
156	20
157	7
158	42
159	67
160	62
161	7
162	78
163	36
167	11
169	3
170	26
171	79
172	45
173	5
174	34
175	28
181	22
182	2
183	47
184	39
185	70
186	4
187	31
188	31
195	31
196	2
197	33
198	33
199	64
200	3
201	39
207	19
209	47
210	2
211	31
212	28
213	57
214	3
215	22
222	20
223	26
224	2
225	19
226	16
227	116
228	5
229	28
233	17
240	250
241	9
242	60
243	17
244	87
245	2
251	68
255	14
256	42
257	1
266	90
267	28
269	81
270	2
284	651
285	163
286	144
287	3
288	26
