Mass spectrum: ISOEUGENOL; EI-MS
Formula: C10H12O2
Exact mass: 164.08373
Instrument type: EI-MS
m/z	relative intensity
40	20
41	35
42	10
43	25
50	30
51	75
52	35
53	65
54	15
55	275
61	15
62	25
63	55
64	25
65	85
66	35
67	25
68	10
69	30
74	15
75	25
76	15
77	255
78	80
79	65
80	15
81	35
82	25
89	35
90	25
91	190
92	40
93	80
94	35
95	15
102	25
103	265
104	145
105	75
106	25
107	60
108	15
109	15
115	35
116	15
117	20
118	20
119	35
120	25
121	205
122	35
123	15
124	20
125	15
130	20
131	175
132	70
133	165
134	30
135	35
136	15
137	75
147	55
148	25
149	365
150	50
151	20
161	15
162	20
163	55
164	999
165	130
166	20
