Mass spectrum: 1,2-DIPHENYLETHENE; EI-MS
Name: TRANS-STILBENE
Formula: C14H12
Exact mass: 180.0939
Instrument type: EI-MS
m/z	relative intensity
39	32
50	25
51	68
52	2
62	11
63	46
64	13
65	1
76	122
77	57
78	27
82	3
89	42
90	42
102	40
115	2
126	10
139	21
150	12
151	4
152	74
153	21
164	11
165	33
166	44
176	64
177	61
178	47
179	817
180	999
181	145
