Mass spectrum: P-CYMENE; EI-MS
Formula: C10H14
Exact mass: 134.10955
Instrument type: EI-MS
m/z	relative intensity
15	12
27	34
39	57
41	52
50	15
51	35
52	12
53	14
58	12
59	11
62	11
63	31
65	54
77	60
78	24
79	21
89	18
91	197
92	21
93	20
102	11
103	37
104	25
105	28
115	44
116	13
117	92
118	18
119	999
120	100
134	248
135	24
