Mass spectrum: 1,4-DICHLOROBENZENE; EI-MS
Formula: C6H4Cl2
Exact mass: 145.96901
Instrument type: EI-MS
m/z	relative intensity
49	17
50	96
51	31
55	43
56	13
61	12
73	76
74	109
75	187
76	23
84	18
85	23
86	12
109	12
110	21
111	311
112	27
113	102
146	999
147	70
148	645
149	43
150	103
