Mass spectrum: METHACRYLIC ACID ISOPROPYL ESTER-D7; EI-MS
Name: ISOPROPYL METHACRYLATE-D7
Formula: C7H12O2
Exact mass: 128.08373
Instrument type: EI-MS
m/z	relative intensity
15	9
18	42
26	12
27	12
28	16
30	263
37	18
38	48
39	411
40	105
41	767
42	141
43	43
44	28
45	16
46	325
47	16
48	105
49	87
50	999
51	29
59	16
61	20
65	30
66	117
69	797
70	40
71	42
72	20
87	48
88	23
89	330
90	28
117	26
135	51
