Mass spectrum: ISOBUTYL 2-METHYLBUTYRATE; EI-MS
Formula: C9H18O2
Exact mass: 158.13068
Instrument type: EI-MS
m/z	relative intensity
27	106
29	255
39	92
41	350
42	23
43	47
55	49
56	377
57	999
58	47
73	22
74	102
85	666
86	30
87	45
102	21
103	290
104	14
115	22
130	38
