Mass spectrum: COUMARIN; EI-MS
Name: 2H-1-BENZOPYRAN-2-ONE
Formula: C9H6O2
Exact mass: 146.03678
Instrument type: EI-MS
m/z	relative intensity
39	77
45	40
50	36
51	6
62	83
63	289
64	87
89	33
90	354
118	999
119	71
146	73
147	59
