Mass spectrum: 3,7-DIMETHYLTROPOLONE; EI-MS
Formula: C9H10O2
Exact mass: 150.06808
Instrument type: EI-MS
m/z	relative intensity
51	90
52	65
53	120
55	5
63	35
64	30
65	105
66	5
67	30
75	40
77	310
78	14
79	175
80	35
91	175
92	4
93	45
94	50
103	100
104	12
105	45
107	660
108	70
121	24
122	510
123	50
131	30
150	999
151	105
