Mass spectrum: PINACOL; EI-MS
Name: 2,3-DIMETHYL-2,3-BUTANEDIOL
Formula: C6H14O2
Exact mass: 118.09938
Instrument type: EI-MS
m/z	relative intensity
15	30
27	22
28	30
29	30
31	105
39	32
41	93
42	20
43	151
55	12
57	113
58	24
59	999
60	32
83	18
85	109
101	12
103	26
