Mass spectrum: 3-DECENYLTRIMETHYLSILANE; EI-MS
Formula: C13H28Si
Exact mass: 212.19603
Instrument type: EI-MS
m/z	relative intensity
42	22
45	33
59	100
72	17
73	999
74	82
75	44
80	12
85	13
99	62
113	25
114	10
127	25
129	16
138	18
159	97
160	13
169	19
174	22
177	27
197	30
212	37
213	10
