Mass spectrum: 2-ETHYL-4-METHYL-IMIDAZOLINE; EI-MS
Formula: C6H12N2
Exact mass: 112.10005
Instrument type: EI-MS
m/z	relative intensity
113	90
112	890
111	320
98	90
97	980
96	70
95	90
84	80
83	780
82	630
81	50
70	120
69	999
68	460
57	60
56	540
55	140
54	520
44	70
43	70
42	320
41	380
40	70
39	150
