Mass spectrum: DIBUTYL TARTRATE; EI-MS
Formula: C12H22O6
Exact mass: 262.14164
Instrument type: EI-MS
m/z	relative intensity
43	130
44	72
45	28
49	21
50	22
51	22
53	41
54	24
55	649
56	946
57	54
58	5
59	138
60	27
71	51
76	999
77	223
87	24
89	90
101	4
105	872
106	31
131	21
132	92
133	60
143	23
151	34
161	23
263	107
