Mass spectrum: 3-CHLOROPHENOL; EI-MS
Formula: C6H5ClO
Exact mass: 128.00289
Instrument type: EI-MS
m/z	relative intensity
51	27
53	56
61	46
62	70
63	191
64	297
65	430
66	54
73	64
74	31
75	39
92	71
93	52
94	57
99	79
100	136
101	31
102	45
127	163
128	999
129	108
130	288
131	21
