Mass spectrum: DECYL NONANOATE; EI-MS
Formula: C19H38O2
Exact mass: 298.28718
Instrument type: EI-MS
m/z	relative intensity
27	109
29	238
30	11
31	12
39	67
41	639
42	181
43	999
44	12
45	18
53	29
54	61
55	626
56	423
57	801
58	36
59	14
60	90
61	214
67	65
68	111
69	389
70	418
71	418
72	22
73	125
74	15
79	11
81	49
82	138
83	346
84	283
85	153
86	12
87	45
89	28
95	19
96	68
97	326
98	205
99	34
101	32
103	21
110	24
111	150
112	238
113	23
115	67
116	34
123	13
125	12
129	60
139	17
140	488
141	393
142	33
157	13
158	88
159	996
160	89
185	29
214	12
298	17
