Mass spectrum: 1,2,3-BENZENETRICARBOXYLIC ACID TRI(TRIMETHYLSILYL) ESTER; EI-MS
Formula: C18H30O6Si3
Exact mass: 426.13502
Instrument type: EI-MS
m/z	relative intensity
43	224
45	85
47	247
49	13
63	126
65	179
73	431
75	91
76	133
77	999
93	750
94	9
95	272
147	121
249	176
