Mass spectrum: DIMETHYL MALEATE; EI-MS
Formula: C6H8O4
Exact mass: 144.04226
Instrument type: EI-MS
m/z	relative intensity
15	281
26	105
27	32
29	49
53	42
54	68
55	43
59	264
82	28
85	89
113	999
114	85
