Mass spectrum: HEXACHLOROBENZENE; EI-MS
Formula: C6Cl6
Exact mass: 281.81312
Instrument type: EI-MS
m/z	relative intensity
47	47
49	30
60	58
71	14
72	66
73	44
83	33
95	8
97	30
106	107
107	256
108	8
109	74
118	85
120	55
123	2
130	30
141	58
142	353
143	12
144	226
145	25
146	30
177	12
179	118
181	39
212	132
214	19
216	99
247	176
249	281
251	19
253	52
282	507
284	999
285	6
286	837
287	52
288	328
289	2
290	88
