Mass spectrum: PENTYL ISOBUTYRATE; EI-MS
Formula: C9H18O2
Exact mass: 158.13068
Instrument type: EI-MS
m/z	relative intensity
18	20
26	10
27	186
28	34
29	129
31	10
39	96
40	19
41	276
42	177
43	999
44	30
45	12
55	132
56	16
57	15
69	39
70	340
71	506
72	20
73	20
85	12
88	15
89	453
90	21
101	20
115	12
