Mass spectrum: 2-(TRIMETHYLSILYL)OXY-OCTADECANOIC ACID TRIMETHYLSILYL ESTER; EI-MS
Formula: C24H52O3Si2
Exact mass: 444.3455
Instrument type: EI-MS
m/z	relative intensity
43	209
45	138
55	268
57	42
67	114
69	296
71	201
73	999
74	130
75	316
81	102
83	42
85	138
91	154
97	391
103	40
111	166
117	134
125	118
129	18
131	102
147	513
148	110
327	62
328	185
429	27
