Mass spectrum: BENZYLOXYTRIMETHYLSILANE; EI-MS
Formula: C10H16OSi
Exact mass: 180.09704
Instrument type: EI-MS
m/z	relative intensity
44	36
56	24
62	26
65	149
73	170
74	30
75	35
77	28
83	64
89	35
91	999
92	84
135	519
136	81
137	25
149	26
165	772
166	118
167	39
179	33
180	121
181	26
