Mass spectrum: LINOLENIC ACID TRIMETHYLSILYL ESTER; EI-MS
Name: 9,12,15-OCTADECATRIENOIC ACID TRIMETHYLSILYL ESTER
Formula: C21H38O2Si
Exact mass: 350.26411
Instrument type: EI-MS
m/z	relative intensity
53	176
54	116
55	504
67	60
69	143
73	893
75	963
77	22
78	125
79	999
80	348
81	48
91	283
93	607
94	237
95	53
105	158
107	250
108	293
109	12
117	227
119	111
121	185
122	10
129	203
131	141
135	131
136	10
145	125
149	106
173	73
335	50
