Mass spectrum: 3,4-BIS(TRIMETHYLSILYL)OXY-PHENYLACETIC ACID TRIMETHYLSILYL ESTER; EI-MS
Name: TRIMETHYLSILYL 3,4-BIS(TRIMETHYLSILOXY)PHENYLACETATE
Formula: C17H32O4Si3
Exact mass: 384.16084
Instrument type: EI-MS
m/z	relative intensity
45	294
73	999
74	85
75	14
77	58
179	495
180	74
237	12
267	320
268	79
340	33
369	7
384	294
385	98
