Mass spectrum: HEPTANAL ETHYLENE GLYCOL ACETAL; EI-MS
Formula: C9H18O2
Exact mass: 158.13068
Instrument type: EI-MS
m/z	relative intensity
15	10
27	74
29	52
31	11
39	41
41	75
42	17
43	47
44	12
45	182
55	20
57	11
71	12
73	999
74	35
157	12
