Mass spectrum: N-(4-HYDROXYPHENYLACETYL)PIPERIDIN-2-ONE; EI-MS
Formula: C13H15NO3
Exact mass: 233.10519
Instrument type: EI-MS
m/z	relative intensity
41	10
43	15
55	50
56	30
57	20
69	10
70	10
71	15
77	10
78	20
79	10
81	10
82	20
83	10
84	10
85	10
98	20
99	20
100	210
101	15
106	200
107	120
108	15
133	10
134	999
135	100
136	10
149	15
233	70
234	13
