Mass spectrum: DIETHYL KETONE; EI-MS
Name: 3-PENTANONE
Formula: C5H10O
Exact mass: 86.07316
Instrument type: EI-MS
m/z	relative intensity
15	13
26	36
27	178
28	69
29	818
30	21
39	18
41	19
42	20
43	31
53	11
55	14
56	49
57	999
58	31
86	163
87	19
