Mass spectrum: PHENYLDICHLOROPHOSPHINE; EI-MS
Formula: C6H5Cl2P
Exact mass: 177.95059
Instrument type: EI-MS
m/z	relative intensity
50	50
51	15
56	25
57	2
63	16
64	17
74	20
75	1
76	14
77	250
78	25
80	3
81	36
101	14
107	141
108	4
112	14
114	5
143	999
144	8
145	330
146	30
154	31
178	48
179	36
180	309
181	21
