Mass spectrum: 2-HEPTANONE; EI-MS
Formula: C7H14O
Exact mass: 114.10447
Instrument type: EI-MS
m/z	relative intensity
29	39
41	49
42	13
43	71
44	22
45	71
55	39
56	2
57	67
58	999
59	183
69	2
70	15
71	176
72	57
83	1
85	59
87	11
99	48
114	16
115	20
