Mass spectrum: 1-AMINOADAMANTANE; EI-MS
Formula: C10H17N
Exact mass: 151.1361
Instrument type: EI-MS
m/z	relative intensity
30	23
39	40
41	60
53	13
54	14
55	12
58	31
65	1
77	33
79	21
80	11
82	1
91	21
93	26
94	999
95	10
108	54
109	10
151	240
152	26
