Mass spectrum: 1,3-DI-TERT-BUTYLBENZENE; EI-MS
Formula: C14H22
Exact mass: 190.17215
Instrument type: EI-MS
m/z	relative intensity
40	47
55	11
57	360
58	25
64	21
65	52
66	49
77	13
79	17
80	53
91	51
103	11
105	21
115	25
116	10
117	25
119	16
128	15
129	10
145	11
147	40
159	13
175	999
176	151
177	11
190	174
191	28
