Mass spectrum: ETHYL ISOVALERATE; EI-MS
Formula: C7H14O2
Exact mass: 130.09938
Instrument type: EI-MS
m/z	relative intensity
40	229
42	115
43	300
44	16
45	192
53	11
55	56
56	87
57	668
58	28
59	137
60	479
61	270
69	44
70	203
71	16
73	91
83	12
84	10
85	783
86	46
87	141
88	999
89	51
101	14
103	47
115	103
130	17
