Mass spectrum: 5-DIMETHYLAMINOPYRIMIDINE; EI-MS
Formula: C6H9N3
Exact mass: 123.07965
Instrument type: EI-MS
m/z	relative intensity
39	16
40	41
40.5	16
41	2
42	166
43	16
44	17
48	5
51	31
52	85
53	61
54	10
55	11
66	17
67	46
68	13
69	106
79	21
80	29
81	22
82	18
94	61
95	67
106	3
107	43
108	10
122	999
123	89
124	75
