Mass spectrum: METHYL STEARATE; EI-MS
Formula: C19H38O2
Exact mass: 298.28718
Instrument type: EI-MS
m/z	relative intensity
54	440
55	84
56	311
58	78
67	60
69	226
71	105
74	999
75	376
81	40
83	129
84	5
85	50
87	853
88	77
95	3
97	89
98	67
101	82
111	4
115	30
129	80
143	239
157	3
185	99
213	31
241	27
255	13
267	78
269	24
270	24
298	58
299	178
300	26
