Mass spectrum: 1-CYCLOHEXYL-2-METHYL-1,4,5,6,7,8-HEXAHYDRO-1-AZAAZULENE; EI-MS
Formula: C16H25N
Exact mass: 231.1987
Instrument type: EI-MS
m/z	relative intensity
41	277
42	64
55	250
77	75
79	87
91	58
93	74
94	151
95	144
107	225
108	275
120	317
121	168
132	89
134	141
146	91
147	59
148	485
149	327
150	179
176	83
177	94
190	85
202	216
203	130
216	135
229	88
230	167
231	999
232	181
