Mass spectrum: (PHENYLTHIO)ACETIC ACID METHYL ESTER; EI-MS
Formula: C9H10O2S
Exact mass: 182.04015
Instrument type: EI-MS
m/z	relative intensity
38	12
39	126
42	36
43	2
44	28
45	999
46	28
47	4
50	69
51	207
52	16
58	1
61	16
63	28
65	207
66	2
69	89
77	223
78	48
79	13
82	20
83	12
91	32
108	4
109	247
110	44
121	65
123	79
124	203
125	117
151	12
182	42
183	146
184	77
