Mass spectrum: 5-ACETYL-3-(DIETHOXYPHOSPHORYL)METHYL-2-ISOXAZOLINE; EI-MS
Formula: C10H18NO5P
Exact mass: 263.09226
Instrument type: EI-MS
m/z	relative intensity
40	57
41	47
42	434
44	37
54	79
57	44
65	109
77	41
79	38
80	107
81	58
95	66
96	34
97	79
104	29
108	53
109	48
122	142
125	152
146	298
150	32
152	178
164	999
165	51
178	54
190	19
192	255
193	51
218	33
220	541
221	52
264	88
265	12
