Mass spectrum: (TRANS)ISOFLAVAN-4-OL ACETATE; EI-MS
Name: TRANS-3-PHENYLCHROMAN-4-YL ACETATE
Formula: C17H16O3
Exact mass: 268.10994
Instrument type: EI-MS
m/z	relative intensity
15	33
16	7
17	7
18	2
28	7
29	30
30	7
39	4
40	7
41	7
42	20
43	20
44	7
45	67
50	20
51	9
52	17
53	3
55	7
60	10
62	7
63	50
64	7
65	2
74	10
75	30
76	103
77	12
78	23
82.5	10
87	10
88	3
89	120
91	30
101	7
102	5
103	50
104	120
105	20
115	5
121	20
122	107
123	10
126	1
127	7
128	8
130	23
131	47
132	43
139	20
151	10
152	3
153	70
154	20
163	7
164	1
165	40
166	7
175	3
176	4
177	40
178	243
179	100
180	1
181	10
189	30
190	10
191	1
205	13
206	23
207	999
208	83
209	120
210	7
226	7
268	10
