Mass spectrum: EUGENOL; EI-MS
Formula: C10H12O2
Exact mass: 164.08373
Instrument type: EI-MS
m/z	relative intensity
41	17
43	10
55	83
77	7
78	18
79	22
91	41
93	2
94	12
103	93
104	97
105	3
107	16
121	92
122	27
131	14
132	67
133	116
134	14
135	1
137	100
147	34
149	241
150	3
163	31
164	999
165	114
166	11
