Mass spectrum: DIETHYL MALONATE; EI-MS
Formula: C7H12O4
Exact mass: 160.07356
Instrument type: EI-MS
m/z	relative intensity
14	13
15	38
26	34
27	303
28	47
29	999
30	26
31	97
41	33
42	394
43	598
44	18
45	171
59	19
60	204
61	67
69	42
70	32
73	24
86	17
87	106
88	273
89	16
105	33
114	10
115	799
116	31
132	19
133	412
134	20
160	34
