Mass spectrum: META-XYLENE; EI-MS
Name: 1,3-DIMETHYLBENZENE
Formula: C8H10
Exact mass: 106.07825
Instrument type: EI-MS
m/z	relative intensity
27	61
38	25
39	130
40	17
41	22
44	11
50	47
51	120
52	62
53	34
61	10
62	24
63	61
64	14
65	76
66	11
74	16
75	12
76	11
77	129
78	69
79	74
89	23
91	999
92	77
102	13
103	55
104	27
105	259
106	647
107	53
