Mass spectrum: 1-ETHYL-1-ISOBUTYLHYDRAZINE; EI-MS
Formula: C6H16N2
Exact mass: 116.13135
Instrument type: EI-MS
m/z	relative intensity
27	51
28	67
29	83
30	9
31	26
39	28
41	61
42	4
43	43
44	83
45	266
46	1
54	5
55	10
56	64
57	4
58	20
59	30
70	3
71	0
72	4
73	999
74	48
84	1
101	14
115	4
116	142
117	18
