Mass spectrum: OCTYL NONANOATE; EI-MS
Formula: C17H34O2
Exact mass: 270.25588
Instrument type: EI-MS
m/z	relative intensity
14	16
27	182
29	353
30	11
31	13
39	85
41	756
42	275
43	999
44	15
45	22
53	36
54	52
55	600
56	470
57	960
58	35
59	20
60	154
61	374
62	11
67	62
68	109
69	413
70	573
71	586
72	31
73	222
74	19
79	12
81	53
82	132
83	454
84	475
85	42
87	57
89	33
95	15
96	24
97	89
98	64
101	37
103	26
110	10
111	24
112	731
113	60
115	72
116	27
123	13
126	11
127	15
129	72
130	11
139	15
141	403
142	37
145	18
157	26
158	89
159	966
160	81
173	24
185	13
270	14
