Mass spectrum: DIMETHYL FUMALATE; EI-MS
Formula: C6H8O4
Exact mass: 144.04226
Instrument type: EI-MS
m/z	relative intensity
14	17
15	393
25	13
26	158
27	45
28	10
29	93
30	18
31	24
39	50
41	39
42	16
45	14
53	148
54	111
55	32
59	310
60	7
81	42
82	62
85	485
86	24
99	20
100	25
113	999
114	195
115	19
144	26
