Mass spectrum: 1,2,3,4-TETRACHLOROBENZENE; EI-MS
Formula: C6H2Cl4
Exact mass: 213.89106
Instrument type: EI-MS
m/z	relative intensity
28	21
72	25
73	40
74	6
84	40
89	20
90	19
107	6
108	115
109	92
110	20
143	8
144	40
145	50
146	20
179	16
180	20
181	142
183	50
214	79
215	52
216	999
217	70
218	49
219	30
220	100
