Mass spectrum: TRIMETHYLVINYLAMMONIUM BROMIDE; EI-MS
Formula: C5H12BrN
Exact mass: 165.01531
Instrument type: EI-MS
m/z	relative intensity
15	310
18	570
30	140
42	9
58	999
59	460
74	140
79	0
80	20
94	400
