Mass spectrum: 9,10-DIHYDROACRIDINE; EI-MS
Name: ACRIDAN
Formula: C13H11N
Exact mass: 181.08915
Instrument type: EI-MS
m/z	relative intensity
39	11
51	12
63	17
75	13
76	16
77	16
89	16
90	13
93	14
126	13
127	13
128	11
150	13
151	39
152	62
153	30
154	13
166	11
167	15
168	22
177	31
178	127
179	999
180	938
181	782
182	111
183	18
184	64
185	27
195	10
196	16
