Mass spectrum: 2-(2-HYDROXYETHOXY)-N-(2-(DIMETHYLAMINO)ETHYL)-4-QUTNOLINECARBOXAMIDE; EI-MS
Formula: C16H21N3O3
Exact mass: 303.15829
Instrument type: EI-MS
m/z	relative intensity
43	6
44	3
55	3
56	5
58	999
72	5
73	2
83	1
85	5
113	1
144	2
145	2
172	1
216	2
258	2
301	1
