Mass spectrum: PHENYL VINYL ETHER; EI-MS
Name: PHENOXYETHYLENE
Formula: C8H8O
Exact mass: 120.05751
Instrument type: EI-MS
m/z	relative intensity
26	10
27	56
38	21
39	102
40	27
46	16
50	47
51	155
52	12
55	37
63	35
65	105
66	98
74	13
76	13
77	193
78	27
91	631
92	82
93	13
94	311
95	21
119	128
120	999
121	93
