Mass spectrum: 1-ETHYLHEXYL PROPIONATE; EI-MS
Name: 3-OCTYL PROPIONATE
Formula: C11H22O2
Exact mass: 186.16198
Instrument type: EI-MS
m/z	relative intensity
27	89
28	21
29	272
31	11
39	31
41	119
42	38
43	86
55	79
56	69
57	999
58	39
69	35
70	63
71	57
72	17
75	37
83	39
84	19
99	13
112	58
115	75
157	29
