Mass spectrum: TRIFLUOROTRIS(TRIMETHYLSILYL)METHYLSILANE; EI-MS
Name: TRIFLUOROSILYLTRIS(TRIMETHYSILYL)METHANE
Formula: C10H27F3Si4
Exact mass: 316.11419
Instrument type: EI-MS
m/z	relative intensity
43	44
44	22
45	143
46	11
47	15
55	11
59	139
60	12
69	17
73	471
74	40
75	18
77	50
83	26
85	22
113	22
117	24
119	10
127	27
129	10
131	15
133	12
147	14
179	11
189	23
193	80
194	17
195	24
197	15
205	95
206	21
207	16
209	999
210	219
211	125
212	20
213	204
214	41
215	24
228	22
285	25
301	872
302	259
303	157
304	33
