Mass spectrum: HALKENDIN; EI-MS
Formula: C13H10O5
Exact mass: 246.05282
Instrument type: EI-MS
m/z	relative intensity
104	90
132	120
160	620
175	50
203	999
231	190
246	810
247	130
