Mass spectrum: ETHYLENE GLYCOL MONO-TERT-BUTYL ETHER; EI-MS
Formula: C6H14O2
Exact mass: 118.09938
Instrument type: EI-MS
m/z	relative intensity
28	10
29	80
31	26
41	17
45	131
55	13
56	105
57	999
58	44
59	684
60	23
87	6
88	18
103	282
104	17
