Mass spectrum: METHYL 3,4,4ABETA,5,6,7,8,8ABETA-OCTAHYDRONAPHTHALEN-1(2H)-OXO-4ALPHA-CARBOXYLATE; EI-MS
Formula: C12H18O3
Exact mass: 210.12559
Instrument type: EI-MS
m/z	relative intensity
39	250
40	433
41	456
42	101
43	154
44	134
53	182
55	442
59	142
67	345
68	104
77	123
79	237
80	213
81	449
83	136
87	133
91	175
93	107
94	131
95	307
96	138
100	905
101	138
108	114
109	376
122	102
124	228
128	999
129	100
132	125
133	37
150	270
151	235
154	165
155	415
168	101
178	190
179	172
192	125
210	618
