Mass spectrum: 2-NAPHTHYL ACETATE; EI-MS
Formula: C12H10O2
Exact mass: 186.06808
Instrument type: EI-MS
m/z	relative intensity
15	56
18	21
39	34
42	20
43	224
50	22
51	22
62	32
63	76
64	13
65	39
74	18
75	22
76	13
77	10
86	12
87	20
88	24
89	65
113	21
114	31
115	468
116	90
126	14
127	18
143	15
144	999
145	92
186	105
187	16
