Mass spectrum: BUTYRALDEHYDE; EI-MS
Formula: C4H8O
Exact mass: 72.05751
Instrument type: EI-MS
m/z	relative intensity
14	33
15	123
25	15
26	124
27	926
28	244
29	642
30	19
31	30
37	43
38	76
39	365
40	49
41	743
42	106
43	777
44	999
45	35
50	20
51	11
53	14
54	24
55	18
57	253
58	11
71	61
72	585
73	34
