Mass spectrum: PIPERIC ACID; EI-MS
Name: 5-(3,4-METHYLENEDIOXYPHENYL)-2,4-PENTADIENOIC ACID
Formula: C12H10O4
Exact mass: 218.05791
Instrument type: EI-MS
m/z	relative intensity
103	33
114	31
115	666
116	14
117	61
130	37
131	40
143	42
144	69
145	25
171	91
172	25
173	999
174	115
175	29
218	66
219	94
