Mass spectrum: 1-(P-CHLOROPHENYL)-2,2-DICHLORO-2-TRIMETHYLSILYLETHANOL; EI-MS
Formula: C11H15Cl3OSi
Exact mass: 295.99577
Instrument type: EI-MS
m/z	relative intensity
43	39
45	91
51	31
63	37
65	50
73	570
74	55
75	342
77	194
89	45
93	326
95	147
113	64
125	37
136	65
139	49
141	999
142	81
143	322
153	96
155	31
171	68
173	43
206	210
208	201
210	65
260	46
262	33
