Mass spectrum: TETRAMETHYL-2-TETRAZENE; EI-MS
Formula: C4H12N4
Exact mass: 116.1062
Instrument type: EI-MS
m/z	relative intensity
28	195
29	20
30	33
31	1
41	22
42	270
43	570
44	41
45	36
46	12
58	30
59	15
71	33
72	530
73	20
116	999
117	61
