Mass spectrum: 2-(ALPHA-FURYL)-6-HYDROXYCHROMANONE PARA-NITROBENZOATE; EI-MS
Name: 2-(2-FURYL)-4-OXOCHROMAN-6-YL PARA-NITROBENZOATE
Formula: C20H13NO7
Exact mass: 379.0692
Instrument type: EI-MS
m/z	relative intensity
32	159
39	137
41	182
42	4
43	447
44	84
50	61
51	7
52	43
53	64
55	275
56	14
57	750
58	22
63	38
64	2
65	200
66	54
67	50
68	3
69	249
70	113
71	461
74	2
75	45
76	168
77	37
79	7
80	25
81	99
82	91
83	24
84	61
85	342
91	25
92	16
93	29
94	291
95	64
96	6
97	239
98	42
99	93
104	33
105	42
107	92
108	42
109	3
111	105
112	26
113	59
115	3
119	58
120	645
121	121
125	5
127	42
131	50
134	54
135	23
136	332
137	63
141	26
149	20
150	999
151	157
201	76
229	9
230	145
231	24
378.5	261
379	50
