Mass spectrum: (4BETA)-CARBOMETHOXY-1(2H)-METHYLENE-3,4,(4ABETA),5,8,(8AALPHA)-HEXAHYDRONAPHTHALENEETHYLENE ACETAL; EI-MS
Formula: C15H22O4
Exact mass: 266.15181
Instrument type: EI-MS
m/z	relative intensity
39	106
41	216
42	317
43	21
53	134
54	64
55	428
59	8
65	98
66	69
67	141
68	8
73	102
77	195
78	129
79	24
81	101
86	675
87	560
91	31
92	206
93	246
95	67
99	71
100	764
103	55
104	68
105	22
107	148
112	173
114	58
120	25
121	221
125	58
129	56
133	9
135	72
137	68
139	180
145	21
147	103
149	276
151	125
163	1
165	252
167	194
170	81
178	30
180	275
183	927
192	82
207	46
223	134
237	200
251	84
266	999
