Mass spectrum: CARVOMENTHOL(CIS-AXIAL); EI-MS
Name: 2-METHYL-5-(1-METHYLETHYL)CYCLOHEXANOL(CIS-AXIAL)
Formula: C10H20O
Exact mass: 156.15142
Instrument type: EI-MS
m/z	relative intensity
31	26
41	320
42	66
43	382
44	33
45	54
53	67
54	21
55	356
56	68
57	387
58	69
67	130
68	94
69	222
70	112
71	124
72	20
77	15
79	29
80	35
81	240
82	237
83	233
84	58
85	18
93	20
94	69
95	999
96	207
97	42
99	38
100	26
109	90
110	63
111	17
112	33
113	435
114	41
123	179
138	341
139	41
156	18
