Mass spectrum: METHYL SORBATE; EI-MS
Name: SORBIC ACID METHYL ESTER
Formula: C7H10O2
Exact mass: 126.06808
Instrument type: EI-MS
m/z	relative intensity
41	76
43	12
53	11
55	36
59	22
65	66
66	208
67	670
68	49
72	22
79	12
81	14
83	54
85	10
93	16
94	30
95	540
96	43
97	22
98	14
111	999
112	68
125	50
126	760
127	52
