Mass spectrum: 2,2-DIMETHOXYPROPANE; EI-MS
Formula: C5H12O2
Exact mass: 104.08373
Instrument type: EI-MS
m/z	relative intensity
14	12
15	103
26	10
27	58
28	12
29	72
31	45
32	11
33	14
39	61
40	17
41	125
42	82
43	424
44	12
45	77
47	44
55	30
57	24
72	34
73	999
74	48
89	250
90	12
