Mass spectrum: BENZYL PROPIONATE; EI-MS
Formula: C10H12O2
Exact mass: 164.08373
Instrument type: EI-MS
m/z	relative intensity
26	22
27	136
28	21
29	309
38	13
39	109
41	23
50	44
51	123
52	26
57	408
58	13
62	13
63	57
64	18
65	177
77	143
78	29
79	143
80	10
89	82
90	240
91	999
92	75
105	32
107	99
108	797
109	60
164	248
165	24
