Mass spectrum: 2,5-BIS(TRIFLUOROMETHYL)BENZIMIDAZOLE; EI-MS
Formula: C9H4F6N2
Exact mass: 254.02787
Instrument type: EI-MS
m/z	relative intensity
69	17
138	13
139	14
140	13
165	14
170	37
184	97
185	34
204	45
213	19
215	107
230	27
233	25
234	393
235	201
236	20
253	15
254	999
255	106
