Mass spectrum: 2-METHYL-2-PENTANOL; EI-MS
Formula: C6H14O
Exact mass: 102.10447
Instrument type: EI-MS
m/z	relative intensity
15	29
27	95
28	13
29	51
31	125
39	75
41	169
42	15
43	189
45	335
55	15
56	11
57	22
58	32
59	999
60	35
69	74
85	25
87	269
88	12
