Mass spectrum: ISOPROPYL ACETATE; EI-MS
Formula: C5H10O2
Exact mass: 102.06808
Instrument type: EI-MS
m/z	relative intensity
14	12
15	77
27	68
29	16
31	19
39	45
40	12
41	115
42	67
43	999
44	26
45	37
59	101
61	251
87	137
102	9
