Mass spectrum: N-BENZYL-3-ETHOXYCARBONYLPYRROLIDINE; EI-MS
Name: ETHYL 1-BENZYLPYRROLIDINE-3-CARBOXYLATE
Formula: C14H19NO2
Exact mass: 233.14158
Instrument type: EI-MS
m/z	relative intensity
42	283
43	19
44	26
51	24
55	32
65	127
68	97
69	29
77	20
82	23
89	20
91	999
92	125
114	24
128	39
132	69
133	29
142	502
143	43
156	93
160	24
184	31
188	140
189	20
204	40
229	30
232	50
233	59
