Mass spectrum: 1-ISOPROPYLALLYL ACETATE; EI-MS
Formula: C8H14O2
Exact mass: 142.09938
Instrument type: EI-MS
m/z	relative intensity
18	10
26	20
40	15
43	999
44	20
55	40
56	15
57	6
58	30
65	80
67	10
69	2
80	290
81	30
83	25
84	2
99	260
100	220
101	40
