Mass spectrum: 4,6-DIHYDROXY-2-METHYLQUINOLINE; EI-MS
Formula: C10H9NO2
Exact mass: 175.06333
Instrument type: EI-MS
m/z	relative intensity
26	62
27	136
29	69
36	3
37	37
38	111
39	370
40	9
41	62
42	91
43	41
45	1
49	12
50	123
51	246
52	28
53	186
54	49
55	62
57	1
58	12
58.5	66
59	21
62	10
63	186
64	74
64.5	62
65	15
66	45
67	74
68	66
69	1
73	58
73.5	66
74	41
75	6
77	99
78	86
79	45
80	7
81	33
87	350
87.5	62
88	2
89	58
90	53
91	140
92	5
93	25
101	21
102	25
103	2
104	25
105	62
106	49
107	6
108	74
109	49
116	29
117	11
118	160
119	53
120	21
128	3
130	33
131	12
132	25
133	2
134	45
135	12
136	41
145	5
146	500
147	367
148	53
159	3
160	33
174	111
175	999
176	17
177	21
