Mass spectrum: DI-ISOPROPYLAMINE; EI-MS
Formula: C6H15N
Exact mass: 101.12045
Instrument type: EI-MS
m/z	relative intensity
15	31
27	69
28	48
29	21
39	41
41	89
42	103
43	84
44	999
45	26
56	12
57	103
70	18
86	437
87	28
100	20
101	75
