Mass spectrum: HEXYL ISOBUTYRATE; EI-MS
Formula: C10H20O2
Exact mass: 172.14633
Instrument type: EI-MS
m/z	relative intensity
27	172
28	47
29	123
39	89
40	18
41	299
42	164
43	999
44	35
53	11
54	10
55	149
56	243
57	65
69	89
70	12
71	412
72	15
73	15
83	20
84	218
85	34
88	13
89	457
90	18
99	11
101	14
129	12
