Mass spectrum: HEXANE; EI-MS
Formula: C6H14
Exact mass: 86.10955
Instrument type: EI-MS
m/z	relative intensity
14	20
15	62
26	51
27	525
28	12
29	605
30	13
38	19
39	271
40	42
41	888
42	395
43	766
44	24
50	11
51	14
53	24
55	80
56	535
57	999
58	45
71	56
85	15
86	158
87	11
