Mass spectrum: 2-UNDECYL IMIDAZOLINE; EI-MS
Formula: C14H28N2
Exact mass: 224.22525
Instrument type: EI-MS
m/z	relative intensity
224	180
223	170
191	140
181	120
167	140
153	180
139	440
125	170
111	210
98	410
97	720
85	170
84	999
82	140
55	210
43	130
41	180
