Mass spectrum: TERT-BUTYL CHLORIDE; EI-MS
Formula: C4H9Cl
Exact mass: 92.03928
Instrument type: EI-MS
m/z	relative intensity
15	22
26	22
27	120
28	39
29	232
37	17
38	35
39	201
40	30
41	637
42	34
49	21
50	18
51	16
53	13
55	38
56	57
57	999
58	44
59	20
76	29
77	375
78	18
79	123
