Mass spectrum: 2-(2-AMINO-2-METHYLPROPYL)-3-(1-METHYL-1,2,3,6-TETRAHYDRO-4-PYRIDYL)INDOLE; EI-MS
Formula: C18H25N3
Exact mass: 283.20485
Instrument type: EI-MS
m/z	relative intensity
58	999
59	44
144	54
167	9
168	94
180	73
181	46
182	9
183	832
184	156
211	18
223	7
225	95
226	552
227	90
283	140
