Mass spectrum: 2-BENZYLPYRIDINE; EI-MS
Formula: C12H11N
Exact mass: 169.08915
Instrument type: EI-MS
m/z	relative intensity
39	43
51	53
65	58
83.5	9
84	29
84.5	10
91	74
166	5
167	343
168	999
169	350
170	35
