Mass spectrum: PARA-METHYLHIPPURIC ACID; EI-MS
Formula: C10H11NO3
Exact mass: 193.07389
Instrument type: EI-MS
m/z	relative intensity
51	41
56	16
62	25
63	77
64	32
65	301
66	19
73	13
74	16
77	16
89	83
90	90
91	177
92	61
105	13
118	115
119	999
120	100
148	109
149	171
150	16
193	13
