Mass spectrum: ISOBUTYL BENZOATE; EI-MS
Name: BENZOIC ACID ISOBUTYL ESTER
Formula: C11H14O2
Exact mass: 178.09938
Instrument type: EI-MS
m/z	relative intensity
27	34
29	58
39	28
41	80
43	12
50	34
51	140
55	19
56	322
57	26
76	18
77	454
78	34
79	49
105	999
106	76
122	18
123	345
124	25
