Mass spectrum: OXALIC ACID; EI-MS
Formula: C2H2O4
Exact mass: 89.99531
Instrument type: EI-MS
m/z	relative intensity
12	22
16	42
17	128
18	58
28	97
36	21
44	999
45	4
46	48
