Mass spectrum: 7-METHOXY-ISOFLAVANONE; EI-MS
Name: 7-METHOXY-3-PHENYLCHROMAN-4-ONE
Formula: C16H14O3
Exact mass: 254.09429
Instrument type: EI-MS
m/z	relative intensity
32	32
39	25
41	12
50	2
51	76
52	15
63	58
64	2
65	22
69	44
76	15
77	6
78	73
79	86
91	27
92	3
94	24
102	12
103	68
104	17
105	15
107	124
108	17
119	1
120	12
122	266
123	18
127	2
136	24
149	58
150	999
151	13
152	19
240	17
254	349
255	59
