Mass spectrum: 12-AMINODODECANAMIDE; EI-MS
Formula: C12H26N2O
Exact mass: 214.20451
Instrument type: EI-MS
m/z	relative intensity
29	70
30	999
31	23
39	27
41	165
42	46
43	135
44	401
45	190
46	21
53	11
54	10
55	178
56	68
57	39
58	27
59	408
60	31
67	20
69	75
70	17
71	11
72	670
73	100
81	16
83	45
84	16
86	173
87	37
95	13
97	17
98	19
100	87
101	30
114	99
115	23
128	87
129	19
142	92
143	32
156	303
157	39
170	21
185	21
196	10
213	7
214	23
215	7
