Mass spectrum: 4-(N-TRIFLUOROACETYL)AMINO-1,2,4-TRIAZOLE; EI-MS
Formula: C4H3F3N4O
Exact mass: 180.0259
Instrument type: EI-MS
m/z	relative intensity
51	131
53	56
69	412
84	8
111	140
153	50
180	999
181	59
