Mass spectrum: ANTHRACENE; EI-MS
Formula: C14H10
Exact mass: 178.07825
Instrument type: EI-MS
m/z	relative intensity
50	43
51	56
61	11
62	50
63	144
74	52
75	152
76	406
77	28
86	17
87	55
88	220
89	329
98	18
99	13
126	16
150	54
151	76
152	88
174	18
175	30
176	186
177	134
178	999
179	166
