Mass spectrum: DIPHENYLDISULFIDE; EI-MS
Formula: C12H10S2
Exact mass: 218.02239
Instrument type: EI-MS
m/z	relative intensity
55	126
57	71
65	621
66	11
69	165
77	182
78	57
108	10
109	999
110	233
111	65
140	8
141	71
154	331
155	58
184	14
185	312
186	204
218	755
219	10
220	70
