Mass spectrum: 11BETA-HYDROXYMETHYL-2ALPHA-METHOXY-5BETA,7,7-TRIMETHYL-8ALPHA-TRICYCLO(6.3.0.0(1,5))UNDECANE; EI-MS
Formula: C16H28O2
Exact mass: 252.20893
Instrument type: EI-MS
m/z	relative intensity
72	525
73	32
81	28
107	4
109	35
119	22
120	28
121	2
123	22
131	73
135	70
138	3
145	28
146	149
147	38
149	14
150	32
159	22
161	262
162	12
163	999
164	180
165	123
166	4
177	25
178	295
179	672
180	15
181	165
182	47
187	89
202	3
205	44
219	85
220	22
234	11
235	19
