Mass spectrum: DIFLUOROMESITYL(2,4,6-TRI-TERT-BUTYLPHENYL)SILANE; EI-MS
Formula: C27H40F2Si
Exact mass: 430.28673
Instrument type: EI-MS
m/z	relative intensity
43	14
55	23
57	999
58	45
77	11
91	25
105	24
115	11
117	14
118	10
119	158
120	65
129	13
131	12
143	11
175	11
185	23
189	10
200	10
229	13
231	39
239	35
261	11
295	41
303	16
315	12
317	79
318	29
359	471
360	142
361	37
373	64
374	82
375	24
430	19
