Mass spectrum: 3,7-DIMETHYL-1,3,5,7-OCTATETRAENYL ACETATE; EI-MS
Formula: C12H16O2
Exact mass: 192.11503
Instrument type: EI-MS
m/z	relative intensity
28	54
41	153
43	999
53	12
55	107
67	182
68	107
69	10
71	98
79	83
81	209
82	9
84	148
85	178
93	173
107	5
132	117
146	78
147	151
148	97
