Mass spectrum: HEXANAL BENZYL TRANS-2-HEXENYL ACETAL; EI-MS
Formula: C19H30O2
Exact mass: 290.22458
Instrument type: EI-MS
m/z	relative intensity
27	38
29	30
39	40
41	170
42	19
43	43
51	15
53	18
54	18
55	240
56	29
57	39
65	41
67	31
69	13
77	28
79	34
81	22
82	39
83	369
84	29
89	11
90	16
91	999
92	154
99	44
105	17
107	42
108	23
113	30
117	15
139	15
