Mass spectrum: PARA-PROPOXYPHENOL; EI-MS
Formula: C9H12O2
Exact mass: 152.08373
Instrument type: EI-MS
m/z	relative intensity
27	58
28	13
29	18
33	5
39	49
41	45
53	32
54	2
55	37
63	11
64	15
65	3
81	57
82	31
93	18
101	2
109	55
110	999
111	66
123	2
152	219
153	23
194	30
