Mass spectrum: 1,1-DIBUTYLHYDRAZINE; EI-MS
Formula: C8H20N2
Exact mass: 144.16265
Instrument type: EI-MS
m/z	relative intensity
27	55
28	30
29	143
30	4
31	12
39	26
41	121
42	4
43	48
44	45
45	513
46	3
55	20
56	12
57	141
58	2
59	152
70	12
84	16
86	1
87	10
101	999
102	101
144	18
145	29
