Mass spectrum: 2-BIS(METHYLTHIO)METHYLFURAN; EI-MS
Formula: C7H10OS2
Exact mass: 174.01731
Instrument type: EI-MS
m/z	relative intensity
28	11
45	16
46	11
47	23
48	29
65	40
79	16
94	37
95	27
96	52
112	16
127	999
128	77
129	52
174	14
