Mass spectrum: METHYL BENZOATE; EI-MS
Name: BENZOIC ACID METHYL ESTER
Formula: C8H8O2
Exact mass: 136.05243
Instrument type: EI-MS
m/z	relative intensity
50	24
51	71
76	17
77	482
78	32
105	999
106	80
135	19
136	312
137	27
