Mass spectrum: 2,3,5-TRIMETHYL-1,2,3,4-TETRAHYDROPYRIMIDO(1,6-A)INDOLE; EI-MS
Formula: C14H18N2
Exact mass: 214.147
Instrument type: EI-MS
m/z	relative intensity
55	12
77	10
81	14
115	5
128	49
129	44
130	72
142	6
154	35
156	135
157	999
158	13
213	17
214	283
