Mass spectrum: N-ACETYLALANYLPHENYLALANYLALANINE METHYL ESTER; EI-MS
Formula: C18H25N3O5
Exact mass: 363.17942
Instrument type: EI-MS
m/z	relative intensity
44	35
86	74
87	53
102	1
104	29
114	219
115	15
119	3
120	999
121	84
131	6
146	33
147	10
174	206
175	4
217	17
232	28
233	426
234	24
235	54
250	25
260	27
261	8
262	12
277	30
304	11
319	1
331	22
332	10
363	106
364	48
