Mass spectrum: 1,4-BUTANEDIOL; EI-MS
Formula: C4H10O2
Exact mass: 90.06808
Instrument type: EI-MS
m/z	relative intensity
27	90
29	107
30	21
31	545
39	93
40	51
41	375
42	999
43	218
44	670
45	40
55	25
57	68
60	12
71	40
