Mass spectrum: 4-ETHYLPYRIDINE; EI-MS
Formula: C7H9N
Exact mass: 107.0735
Instrument type: EI-MS
m/z	relative intensity
15	16
26	44
27	112
28	69
29	12
37	18
38	53
39	250
40	23
41	46
49	14
50	144
51	253
52	154
53	68
54	73
62	18
63	67
64	28
65	269
66	39
67	10
74	11
75	13
76	15
77	101
78	76
79	245
80	111
92	455
93	25
104	17
105	10
106	835
107	999
108	80
