Mass spectrum: 6-CYANO-1,2,3,4-TETRAHYDRONAPHTHALENE; EI-MS
Name: 6-CYANOTETRALIN
Formula: C11H11N
Exact mass: 157.08915
Instrument type: EI-MS
m/z	relative intensity
27	18
29	34
39	75
41	22
44	100
50	40
51	75
63	92
64	40
75	10
77	71
89	46
102	65
103	50
115	51
116	305
129	999
130	110
141	11
142	150
157	455
158	20
