Mass spectrum: 3-HEXYL BUTYRATE; EI-MS
Name: 1-ETHYLBUTYL BUTYRATE
Formula: C10H20O2
Exact mass: 172.14633
Instrument type: EI-MS
m/z	relative intensity
27	136
28	22
29	88
31	12
39	59
41	173
42	80
43	535
44	21
55	92
56	83
57	39
59	13
60	22
69	46
71	999
72	52
73	16
84	128
85	83
88	40
89	74
101	15
129	50
143	38
