Mass spectrum: BERGAPTEN; EI-MS
Name: 4-METHOXY-7H-FURO(3,2-G)(1)BENZOPYRAN-7-ONE
Formula: C12H8O4
Exact mass: 216.04226
Instrument type: EI-MS
m/z	relative intensity
51	161
53	35
63	122
74	7
88	44
89	196
90	22
116	3
117	44
118	31
131	44
144	3
145	383
146	61
159	39
160	3
173	783
174	104
187	52
188	21
201	370
202	70
203	13
216	999
217	131
