Mass spectrum: TETRAHYDROFURFURYL PROPIONATE; EI-MS
Formula: C8H14O3
Exact mass: 158.09429
Instrument type: EI-MS
m/z	relative intensity
15	16
26	17
27	162
28	21
29	245
31	24
39	62
40	11
41	130
42	67
43	355
44	12
54	15
55	27
56	18
57	225
70	17
71	999
72	40
84	114
