Mass spectrum: PARA-(PENTAMETHYLDISILANYL)BENZALDEHYDE; EI-MS
Formula: C12H20OSi2
Exact mass: 236.10527
Instrument type: EI-MS
m/z	relative intensity
43	80
44	28
45	107
53	22
59	33
73	999
74	84
75	42
91	22
105	26
107	20
117	22
119	34
131	24
133	40
134	40
135	35
147	19
148	97
149	21
163	782
164	118
165	38
193	76
221	187
222	44
236	203
237	49
238	20
