Mass spectrum: ALPHA-3-PHENYLTROPIDINE HYDROBROMIDE; EI-MS
Formula: C14H18BrN
Exact mass: 279.06226
Instrument type: EI-MS
m/z	relative intensity
36	59
39	46
41	33
42	20
44	16
50	23
51	59
52	2
53	20
54	20
55	26
56	3
57	49
63	30
65	46
67	0
68	23
70	26
72	20
75	1
76	26
77	63
78	26
79	2
80	16
81	16
82	33
84	1
85	73
89	20
91	63
94	1
96	43
102	30
103	30
104	2
115	99
116	16
122	16
127	0
128	86
129	49
141	53
142	5
143	33
152	16
153	20
154	4
155	20
156	16
157	16
167	0
168	20
169	23
170	999
171	30
172	33
184	23
198	23
199	15
200	20
