Mass spectrum: HEPTYL ISOBUTYRATE; EI-MS
Formula: C11H22O2
Exact mass: 186.16198
Instrument type: EI-MS
m/z	relative intensity
27	231
28	53
29	196
31	16
39	115
40	23
41	508
42	193
43	999
44	35
53	14
54	31
55	236
56	423
57	542
58	22
68	34
69	177
70	307
71	510
72	19
73	18
83	34
88	16
89	620
90	25
97	23
98	264
99	19
101	14
113	10
