Mass spectrum: ETHYLENE GLYCOL DIETHYL ETHER; EI-MS
Formula: C6H14O2
Exact mass: 118.09938
Instrument type: EI-MS
m/z	relative intensity
15	34
19	14
26	28
27	263
28	94
29	458
30	17
31	999
41	52
42	19
43	169
44	108
45	568
46	14
47	35
51	10
58	12
59	977
60	27
61	24
72	32
73	70
74	436
75	21
118	18
