Mass spectrum: PROPYLHYDRAZONE BUTYRALDEHYDE; EI-MS
Name: BUTYRALDEHYDE PROPYLHYDRAZONE
Formula: C7H16N2
Exact mass: 128.13135
Instrument type: EI-MS
m/z	relative intensity
28	194
29	103
30	689
31	2
32	11
39	72
40	12
41	26
42	75
43	375
44	63
54	2
55	31
56	50
57	91
58	7
68	28
69	28
70	104
71	4
72	15
83	13
85	67
97	1
99	999
100	91
127	9
128	25
129	28
