Mass spectrum: 1,2,3-TRIMETHOXYPROPANE; EI-MS
Formula: C6H14O3
Exact mass: 134.09429
Instrument type: EI-MS
m/z	relative intensity
39	54
41	137
42	65
43	34
45	811
46	22
47	90
55	2
56	25
57	44
58	464
59	999
60	48
70	10
71	149
72	6
73	43
74	40
75	74
87	2
88	118
89	771
90	24
101	4
102	352
103	18
