Mass spectrum: 3-BROMOPROPYL PHENYL SULFIDE; EI-MS
Formula: C9H11BrS
Exact mass: 229.97648
Instrument type: EI-MS
m/z	relative intensity
41	84
45	147
65	11
66	27
73	29
77	22
79	20
91	20
109	101
110	436
111	43
112	22
117	14
121	11
123	999
124	94
125	49
137	17
149	12
151	96
168	22
188	12
190	11
230	558
231	64
232	565
233	65
234	28
