Mass spectrum: N,N,N',N'-TETRAMETHYL-1,6-DIAMINOHEXANE; EI-MS
Formula: C10H24N2
Exact mass: 172.19395
Instrument type: EI-MS
m/z	relative intensity
15	14
27	11
28	20
29	2
30	31
41	29
42	83
43	2
44	41
45	35
46	13
55	2
56	20
57	17
58	999
59	4
70	14
71	16
84	57
112	2
114	44
126	16
127	21
128	4
172	33
