Mass spectrum: SITOSTEROL ACETATE; EI-MS
Formula: C31H52O2
Exact mass: 456.39673
Instrument type: EI-MS
m/z	relative intensity
27	45
29	138
41	325
43	999
55	477
57	435
67	262
69	286
71	234
77	54
79	204
81	587
82	51
83	147
85	184
91	221
92	70
93	282
94	84
95	336
97	119
105	311
106	118
107	331
108	131
109	191
111	86
117	102
118	63
119	179
120	221
121	231
122	60
123	93
127	34
129	56
130	40
131	146
132	48
133	221
134	64
135	157
136	48
137	39
143	142
144	64
145	358
146	156
147	520
148	117
149	112
157	82
158	75
159	170
160	127
161	126
162	47
163	86
171	39
173	62
175	65
177	59
185	44
187	34
191	34
199	53
200	41
201	40
213	149
214	47
215	41
228	45
255	161
256	37
274	41
275	108
276	42
288	122
289	38
381	122
382	47
396	619
397	218
398	43
