Mass spectrum: BIS(CHLORODIMETHYLSILYL)METHANE; EI-MS
Formula: C5H14Cl2Si2
Exact mass: 200.00111
Instrument type: EI-MS
m/z	relative intensity
43	49
45	27
55	21
59	38
63	57
65	55
71	29
72	130
73	111
75	34
79	32
85	44
86	20
93	178
95	65
131	101
149	87
151	40
165	146
166	28
167	104
169	38
171	20
185	999
186	157
187	717
188	105
189	156
190	20
