Mass spectrum: BENZOIC ACID METHYL ESTER; EI-MS
Formula: C8H8O2
Exact mass: 136.05243
Instrument type: EI-MS
m/z	relative intensity
45	105
49	12
50	72
51	20
53	16
58	8
59	50
60	2
73	16
74	50
75	16
76	3
77	542
78	50
91	8
92	5
105	999
106	63
107	12
131	2
135	29
136	313
137	21
