Mass spectrum: SULFANILIC ACID; EI-MS
Formula: C6H7NO3S
Exact mass: 173.01466
Instrument type: EI-MS
m/z	relative intensity
18	23
27	29
28	89
38	36
39	148
40	21
48	46
51	31
52	63
53	73
54	36
62	35
63	90
64	68
65	348
66	68
80	282
81	56
91	57
92	258
93	115
104	25
106	49
108	625
109	134
140	22
156	72
173	999
174	85
175	60
