Mass spectrum: 2-PYRIDYL PHENYL ETHER; EI-MS
Formula: C11H9NO
Exact mass: 171.06841
Instrument type: EI-MS
m/z	relative intensity
50	90
51	390
52	90
65	80
77	180
78	320
85	60
104	60
115	230
116	130
117	140
142	80
143	560
144	70
170	999
171	910
172	150
