Mass spectrum: PHTHALIC ANHYDRIDE; EI-MS
Formula: C8H4O3
Exact mass: 148.01604
Instrument type: EI-MS
m/z	relative intensity
37	142
38	289
39	31
49	64
50	513
51	40
52	102
61	26
73	60
74	187
75	115
76	890
77	72
104	999
105	78
148	351
149	33
