Mass spectrum: DIBUTYL PHTHALATE; EI-MS
Name: PHTHALIC ACID DI-BUTYL ESTER
Formula: C16H22O4
Exact mass: 278.15181
Instrument type: EI-MS
m/z	relative intensity
56	10
149	999
150	97
151	11
160	11
205	68
206	11
223	85
224	11
278	9
