Mass spectrum: HEXANEDIOIC ACID DIBUTYL ESTER; EI-MS
Name: DIBUTYL ADIPATE
Formula: C14H26O4
Exact mass: 258.18311
Instrument type: EI-MS
m/z	relative intensity
27	5
29	79
41	125
42	5
43	70
44	3
45	7
52	13
54	18
55	120
56	527
57	280
58	24
59	33
60	93
61	44
64	4
67	2
68	23
69	27
70	4
71	3
73	99
74	15
75	4
79	2
82	18
83	145
84	59
85	14
86	10
87	508
88	23
90	109
95	82
96	6
97	5
98	13
99	17
100	355
101	365
102	67
103	23
109	5
110	38
111	546
112	100
113	10
114	2
116	13
117	4
124	2
126	3
127	14
128	55
129	999
130	103
131	19
132	18
141	3
142	9
143	350
144	34
145	6
147	3
155	4
156	413
157	48
158	43
159	5
169	10
183	3
184	35
185	826
186	149
187	18
202	1
203	18
204	2
229	5
258	8
259	72
260	11
