Mass spectrum: 2-PHENYLPYRIDINE; EI-MS
Formula: C11H9N
Exact mass: 155.0735
Instrument type: EI-MS
m/z	relative intensity
50	57
51	111
52	51
76	5
76.5	56
77	182
77.5	76
78	5
127	130
128	102
153	68
154	83
155	999
156	130
