Mass spectrum: GAMMA-HEXALACTONE; EI-MS
Formula: C6H10O2
Exact mass: 114.06808
Instrument type: EI-MS
m/z	relative intensity
15	29
26	50
27	214
28	313
29	964
30	38
31	27
38	27
39	93
40	22
41	109
42	239
43	38
55	151
56	399
57	389
58	38
59	41
70	168
85	999
86	109
114	26
