Mass spectrum: PERMETHYLATED N-ACETYLGALACTOSAMINYL-(BETA1,3)-GALACTOSYL-(ALPHA1,4)-GALACTOSYL-(BETA1,4)-GLUCITOL; EI-MS
Formula: C41H77NO21
Exact mass: 919.49881
Instrument type: EI-MS
m/z	relative intensity
101	370
753	9
111	163
754	2
115	126
800	2
127	409
816	1
129	350
830	1
142	208
859	0
155	198
872	1
159	860
888	4
