Mass spectrum: 2-BUTANOL; EI-MS
Name: SEC-BUTYL ALCOHOL
Formula: C4H10O
Exact mass: 74.07316
Instrument type: EI-MS
m/z	relative intensity
15	16
19	37
27	83
28	60
29	77
31	169
39	19
41	110
43	96
44	79
45	999
46	25
55	25
57	24
59	183
73	11
