Mass spectrum: 4-NONANONE; EI-MS
Name: PENTYL PROPYL KETONE
Formula: C9H18O
Exact mass: 142.13577
Instrument type: EI-MS
m/z	relative intensity
15	15
27	197
28	32
29	131
39	88
40	16
41	220
42	49
43	999
44	34
53	15
55	58
56	11
57	24
58	427
59	19
70	18
71	578
72	33
86	239
87	34
99	437
100	38
142	118
143	14
