Mass spectrum: GLYCERYL DIACETATE; EI-MS
Formula: C7H12O5
Exact mass: 176.06847
Instrument type: EI-MS
m/z	relative intensity
45	55
55	51
56	74
59	35
60	307
73	106
74	242
86	16
103	999
104	50
115	104
116	17
117	51
145	334
146	21
159	100
