Mass spectrum: DIETHYLENE GLYCOL DIMETHYL ETHER; EI-MS
Name: BIS(2-METHOXYETHYL) ETHER
Formula: C6H14O3
Exact mass: 134.09429
Instrument type: EI-MS
m/z	relative intensity
43	63
45	218
58	430
59	999
60	31
87	18
89	183
102	12
