Mass spectrum: N-PIPEROYLANILINE; EI-MS
Name: 5-(3,4-METHYLENEDIOXYPHENYL)-N-PHENYL-2,4-PENTADIENAMIDE
Formula: C18H15NO3
Exact mass: 293.10519
Instrument type: EI-MS
m/z	relative intensity
159	14
161	29
171	83
172	6
173	79
201	999
202	104
293	27
294	53
