Mass spectrum: ISOBUTYL PROPIONATE; EI-MS
Formula: C7H14O2
Exact mass: 130.09938
Instrument type: EI-MS
m/z	relative intensity
29	139
41	64
43	24
55	12
56	434
57	999
58	36
71	46
73	31
74	21
75	106
87	128
88	12
100	17
