Mass spectrum: 2,6-DIMETHYL-4-PYRONE; EI-MS
Formula: C7H8O2
Exact mass: 124.05243
Instrument type: EI-MS
m/z	relative intensity
40	60
41	110
42	140
43	999
44	70
49	60
51	60
52	50
53	190
54	60
56	90
67	40
69	660
81	350
84	170
85	90
95	450
96	350
124	880
125	60
