Mass spectrum: 2-CHLOROPROPANE (1,1,1,2,3,3,3-D7); EI-MS
Name: ISOPROPYLCHLORIDE (1,1,1,2,3,3,3-D7)
Formula: C3H7Cl
Exact mass: 78.02363
Instrument type: EI-MS
m/z	relative intensity
16	21
18	74
28	135
29	27
30	583
32	34
35	22
37	15
38	33
40	61
42	215
44	31
45	27
46	364
47	20
48	65
49	142
50	999
51	33
63	15
65	27
67	176
69	56
84	15
85	155
87	52
