Mass spectrum: TRIDEUTEROMETHYLEUGENOL(D3); EI-MS
Formula: C11H14O2
Exact mass: 178.09938
Instrument type: EI-MS
m/z	relative intensity
40	45
41	240
42	40
43	160
44	25
45	40
46	15
47	30
50	90
51	250
52	85
53	85
54	15
55	115
56	15
57	30
58	10
59	20
60	35
61	15
62	70
63	155
64	75
65	275
66	80
67	30
68	15
69	25
74	45
75	35
76	45
77	265
78	165
79	255
80	70
81	35
82	25
83	15
86	15
87	15
88	10
89	95
90	80
91	575
92	175
93	65
94	40
95	40
96	15
97	10
101	15
102	40
103	535
104	140
105	215
106	105
107	290
108	70
109	65
110	50
111	25
114	10
115	125
116	85
117	85
118	65
119	95
120	115
121	30
122	15
123	15
124	15
131	125
132	55
133	45
134	25
135	15
136	40
137	45
138	85
139	20
145	10
146	35
147	235
148	75
149	120
150	175
151	35
152	30
153	70
154	135
155	15
161	15
162	15
163	35
164	75
165	75
166	120
167	25
168	10
178	35
179	125
180	575
181	999
182	125
