Mass spectrum: 4,4'-TRANS-VINYLENEDIPYRIDINE; EI-MS
Formula: C12H10N2
Exact mass: 182.0844
Instrument type: EI-MS
m/z	relative intensity
50	239
51	649
52	193
61	2
62	67
63	338
64	126
65	5
75	134
76	196
77	610
78	14
79	66
80	12
84	43
87	3
88	25
89	84
90	60
91	8
98	13
99	20
100	18
101	11
102	92
103	39
104	29
114	1
115	15
126	30
127	125
128	5
129	37
140	13
141	13
142	1
152	20
153	30
154	232
155	10
156	14
179	39
180	33
181	99
182	999
183	143
