Mass spectrum: (1,1'-BIPHENYL)-4,4'-DIAMINE; EI-MS
Name: BENZIDINE
Formula: C12H12N2
Exact mass: 184.10005
Instrument type: EI-MS
m/z	relative intensity
41	21
43	18
51	21
52	2
63	24
65	30
77	34
78	3
91	59
92	67
93	28
115	2
117	37
127	31
128	39
129	2
130	45
139	24
154	25
156	6
157	21
166	49
167	53
168	2
181	22
182	33
183	123
184	999
185	128
