Mass spectrum: METHYLAL; EI-MS
Name: DIMETHOXYMETHANE
Formula: C3H8O2
Exact mass: 76.05243
Instrument type: EI-MS
m/z	relative intensity
14	17
15	256
28	12
29	276
30	14
31	91
44	20
45	999
46	24
47	37
75	461
76	17
