Mass spectrum: 2-(TRANS-STYRYL)PYRIDINE; EI-MS
Formula: C13H11N
Exact mass: 181.08915
Instrument type: EI-MS
m/z	relative intensity
50	26
51	81
52	17
63	4
64	10
75	22
76	57
77	11
78	69
79	58
89	64
90	11
91	14
101	10
102	22
104	1
126	122
127	29
128	22
151	4
152	118
153	40
154	16
178	5
179	47
180	999
181	329
182	65
