Mass spectrum: CYCLOHEXANE; EI-MS
Formula: C6H12
Exact mass: 84.0939
Instrument type: EI-MS
m/z	relative intensity
15	28
26	40
27	304
28	122
29	109
38	24
39	344
40	55
41	716
42	309
43	128
50	23
51	37
52	16
53	56
54	64
55	379
56	999
57	37
67	29
68	17
69	230
70	14
83	44
84	590
85	32
