Mass spectrum: 2-BUTYRYLFURAN; EI-MS
Name: 1-(2-FURANYL)-1-BUTANONE
Formula: C8H10O2
Exact mass: 138.06808
Instrument type: EI-MS
m/z	relative intensity
27	90
29	21
39	301
40	28
41	125
42	106
43	187
53	39
54	29
55	85
66	10
67	66
68	119
69	23
81	67
82	20
94	10
95	999
96	120
97	20
119	10
110	766
111	95
123	224
124	11
138	225
125	18
