Mass spectrum: 2-ETHYLHEXYL ACETATE; EI-MS
Formula: C10H20O2
Exact mass: 172.14633
Instrument type: EI-MS
m/z	relative intensity
15	32
27	111
28	15
29	166
31	10
39	76
41	268
42	91
43	999
44	23
53	21
54	16
55	269
56	181
57	374
58	17
61	55
67	12
68	12
69	92
70	582
71	82
72	12
73	78
74	121
75	12
82	19
83	149
84	80
86	46
97	12
98	10
111	13
112	81
