Mass spectrum: ACETYLACETONE; EI-MS
Name: 2,4-PENTANEDIONE
Formula: C5H8O2
Exact mass: 100.05243
Instrument type: EI-MS
m/z	relative intensity
42	57
43	999
44	17
55	15
58	41
72	41
85	442
100	318
101	19
