Mass spectrum: 2-HEPTENYLTRIMETHYLSILANE; EI-MS
Name: 1-TRIMETHYLSILYL-2-HEPTENE
Formula: C10H22Si
Exact mass: 170.14908
Instrument type: EI-MS
m/z	relative intensity
45	50
59	58
73	999
74	85
75	42
77	13
79	29
85	12
93	15
94	107
95	16
111	47
153	37
168	71
169	11
170	5
