Mass spectrum: 5-METHOXYPYRIMIDINE; EI-MS
Formula: C5H6N2O
Exact mass: 110.04801
Instrument type: EI-MS
m/z	relative intensity
38	12
39	35
40	130
41	1
42	24
51	35
52	66
53	1
56	413
57	14
66	14
67	1
68	211
79	13
83	92
94	1
110	999
111	73
