Mass spectrum: 1-PROPYLAMINE; EI-MS
Formula: C3H9N
Exact mass: 59.0735
Instrument type: EI-MS
m/z	relative intensity
15	11
18	29
26	14
27	4
28	91
29	17
30	999
31	1
39	21
41	54
42	29
43	3
56	11
58	29
59	113
