Mass spectrum: OCTYL BENZOATE; EI-MS
Formula: C15H22O2
Exact mass: 234.16198
Instrument type: EI-MS
m/z	relative intensity
27	97
29	122
39	55
41	268
42	105
43	172
50	29
51	152
52	11
53	17
54	24
55	181
56	185
57	68
67	17
68	33
69	127
70	210
71	23
76	27
77	536
78	40
79	79
82	27
83	126
84	114
97	12
105	979
106	81
112	123
122	139
123	999
124	76
