Mass spectrum: 2-METHYL-1-HEXANOL; EI-MS
Formula: C7H16O
Exact mass: 116.12012
Instrument type: EI-MS
m/z	relative intensity
27	118
28	34
29	129
31	106
39	77
40	13
41	279
42	82
43	999
44	34
45	22
53	16
54	15
55	153
56	324
57	174
59	13
68	16
69	220
70	129
83	37
84	113
85	220
86	14
98	109
