Mass spectrum: PHENYLETHYL 2-ETHYLHEXANOATE; EI-MS
Formula: C16H24O2
Exact mass: 248.17763
Instrument type: EI-MS
m/z	relative intensity
27	29
29	35
39	17
41	7
43	59
51	12
55	38
57	20
65	14
77	39
78	16
79	2
91	40
99	13
103	23
104	999
105	214
106	13
127	11
