Mass spectrum: BETA-PINENE; EI-MS
Name: 6,6-DIMETHYL-2-METHYLENEBICYCLO(3.1.1)HEPTANE
Formula: C10H16
Exact mass: 136.1252
Instrument type: EI-MS
m/z	relative intensity
53	60
55	121
67	235
69	702
79	396
80	339
93	999
94	364
107	194
108	81
121	350
122	45
136	249
137	35
