Mass spectrum: 7-METHYL-4-OXO-4H-PYRIDO(1,2-A)PYRIMIDINE-3-ACETIC ACID ETHYL ESTER; EI-MS
Formula: C13H14N2O3
Exact mass: 246.10044
Instrument type: EI-MS
m/z	relative intensity
39	31
55	48
66	13
72.5	2
86.5	20
92	155
94	26
119	4
144	10
145	35
173	999
174	13
175	11
201	37
246	266
247	37
