Mass spectrum: 2-(TRIMETHYLSILYLMETHYL)BENZYL METHYL ETHER; EI-MS
Formula: C12H20OSi
Exact mass: 208.12834
Instrument type: EI-MS
m/z	relative intensity
73	108
89	28
104	999
105	84
163	37
177	41
192	23
193	12
208	3
