Mass spectrum: 4,4-DIMETHYL-8-OXO-1ALPHA,5ALPHA-BICYCLO(3.3.0)OCTANE-2BETA-CARBOXYLIC ACID; EI-MS
Formula: C11H16O3
Exact mass: 196.10994
Instrument type: EI-MS
m/z	relative intensity
81	32
82	22
83	39
84	3
93	31
94	63
95	115
96	999
97	156
108	157
109	149
110	9
114	141
119	23
123	55
124	12
125	171
134	39
135	55
137	9
140	61
150	101
151	25
152	18
153	366
154	25
168	219
169	2
178	340
181	51
196	129
