Mass spectrum: BENZOIC ACID BUTYL ESTER; EI-MS
Name: BUTYL BENZOATE
Formula: C11H14O2
Exact mass: 178.09938
Instrument type: EI-MS
m/z	relative intensity
29	24
41	46
55	24
56	252
57	16
77	206
78	22
79	71
105	999
106	88
107	10
122	225
123	925
124	73
135	18
178	31
179	6
