Mass spectrum: PROPYL ISOPENTANOATE; EI-MS
Name: PROPYL ISOVALERATE
Formula: C8H16O2
Exact mass: 144.11503
Instrument type: EI-MS
m/z	relative intensity
15	21
26	15
27	290
29	213
31	34
38	11
39	224
41	566
42	243
43	581
44	17
45	46
53	11
55	43
56	59
57	641
58	32
59	132
60	422
61	444
62	11
69	25
85	999
86	60
87	220
102	158
103	599
104	26
115	22
