Mass spectrum: TEREPHTHALIC ACID DIMETHYL ESTER (D6); EI-MS
Name: DI(2H3)METHYL TEREPHTHALATE
Formula: C10H10O4
Exact mass: 194.05791
Instrument type: EI-MS
m/z	relative intensity
18	51
50	84
52	20
62	15
66	16
74	32
75	74
76	90
78	30
92	23
103	124
104	55
119	31
120	53
138	208
139	15
165	14
166	999
167	95
182	11
200	235
201	23
