Mass spectrum: HEXANEDIOIC ACID DIMETHYL ESTER; EI-MS
Name: DIMETHYL ADIPATE
Formula: C8H14O4
Exact mass: 174.08921
Instrument type: EI-MS
m/z	relative intensity
15	187
27	110
28	103
29	117
31	28
39	108
41	298
42	176
43	404
44	21
45	64
53	33
54	89
55	769
56	92
57	40
59	999
60	21
68	26
69	68
71	32
72	64
73	245
74	352
82	90
83	202
84	14
87	92
88	16
97	27
101	489
102	22
110	20
111	513
112	34
114	584
115	125
142	101
143	473
144	34
