Mass spectrum: CITRONELLYL BUTYRATE; EI-MS
Name: BUTYRIC ACID 3,7-DIMETHYL-6-OCTEN-1-OL ESTER
Formula: C14H26O2
Exact mass: 226.19328
Instrument type: EI-MS
m/z	relative intensity
28	26
41	167
43	338
55	324
57	203
69	800
71	537
81	989
82	895
95	999
96	308
109	461
110	117
123	812
124	102
138	417
139	56
