Mass spectrum: ETHYL 4-ACETYLAMINOBENZOATE; EI-MS
Formula: C11H13NO3
Exact mass: 207.08954
Instrument type: EI-MS
m/z	relative intensity
42	8
43	202
44	6
65	23
91	5
92	82
93	53
108	7
119	18
120	938
121	172
122	11
132	25
138	27
150	34
151	3
162	223
163	29
164	21
165	999
166	108
167	7
207	533
208	70
209	6
