Mass spectrum: HEPTANAL DIETHYL ACETAL; EI-MS
Formula: C11H24O2
Exact mass: 188.17763
Instrument type: EI-MS
m/z	relative intensity
15	10
19	11
27	149
28	19
29	322
30	11
31	38
39	37
41	179
42	24
43	141
44	80
45	46
47	513
53	13
55	347
56	21
57	124
58	16
59	34
67	13
69	62
70	11
72	35
73	11
75	349
76	11
85	57
88	19
97	185
98	13
103	999
104	49
113	12
143	301
144	28
