Mass spectrum: ALLYLHYDRAZINE; EI-MS
Formula: C3H8N2
Exact mass: 72.06875
Instrument type: EI-MS
m/z	relative intensity
27	195
28	264
29	94
30	15
31	999
38	43
39	290
40	4
41	303
42	91
43	191
44	14
45	439
52	28
54	123
55	14
56	118
57	41
71	82
72	54
73	46
