Mass spectrum: 2,2-DIMETHYL-1,2,3,4-TETRAHYDRO-GAMMA-CARBOLINE; EI-MS
Formula: C13H16N2
Exact mass: 200.13135
Instrument type: EI-MS
m/z	relative intensity
42	30
44	12
51	10
57	5
71	10
77	19
87	10
91	1
92	10
101	10
115	49
128	2
130	15
142	20
143	999
144	12
145	11
185	10
199	8
200	154
