Mass spectrum: ALPHA-ACETYL DELTA-VALEROLACTONE; EI-MS
Formula: C7H10O3
Exact mass: 142.06299
Instrument type: EI-MS
m/z	relative intensity
15	100
26	24
27	144
28	70
29	99
31	22
39	120
40	25
41	106
42	66
43	999
44	61
45	41
53	73
54	80
55	276
56	67
57	23
58	53
69	70
70	21
71	30
72	26
73	76
81	52
82	72
83	25
84	47
85	29
96	57
97	26
99	208
100	545
101	33
109	123
124	67
127	163
142	145
