Mass spectrum: DIMETHYL TETRASULFIDE; EI-MS
Formula: C2H6S4
Exact mass: 157.93523
Instrument type: EI-MS
m/z	relative intensity
45	312
46	156
47	248
48	6
61	139
64	266
65	20
66	5
79	999
80	161
81	102
94	55
95	22
96	58
111	102
112	2
126	431
127	23
128	57
158	44
159	23
160	79
