Mass spectrum: PROPANEDIOIC ACID BIS(TRIMETHYLSILYL) ESTER; EI-MS
Name: BIS(TRIMETHYLSILYL) MALONATE
Formula: C9H20O4Si2
Exact mass: 248.09001
Instrument type: EI-MS
m/z	relative intensity
44	109
45	145
73	981
74	10
75	395
130	263
147	999
148	15
149	86
174	181
202	140
217	3
233	36
