Mass spectrum: 2-CHLORO-5-NITROBENZOIC ACID METHYL ESTER; EI-MS
Formula: C8H6ClNO4
Exact mass: 214.99854
Instrument type: EI-MS
m/z	relative intensity
44	36
50	30
51	24
63	9
73	24
74	193
75	345
77	4
84	24
109	48
110	187
111	2
112	48
126	90
137	24
138	30
139	24
140	90
153	48
154	12
156	18
169	18
184	999
185	16
186	375
187	48
215	266
217	12
