Mass spectrum: 6-METHYL-9-(2-(6-METHYL-3-PYRIDYL)ETHYL)-1,2,3,4-TETRAHYDROCARBAZOLE; EI-MS
Formula: C21H24N2
Exact mass: 304.19395
Instrument type: EI-MS
m/z	relative intensity
42	13
43	21
57	11
58	1
77	15
105	10
128	21
170	6
198	999
199	120
304	281
