Mass spectrum: ADIPIC ACID DIBUTYL ESTER; EI-MS
Name: HEXANEDIOIC ACID DIBUTYL ESTER
Formula: C14H26O4
Exact mass: 258.18311
Instrument type: EI-MS
m/z	relative intensity
26	12
27	139
28	122
29	488
30	13
31	28
39	90
40	16
41	463
42	40
43	118
44	11
45	24
53	21
54	26
55	316
56	411
57	388
59	19
60	75
61	81
62	31
68	21
69	28
73	100
74	16
82	14
83	161
84	72
85	13
86	10
87	329
88	15
99	19
100	191
101	295
102	44
103	13
110	17
111	440
112	76
113	11
127	10
128	32
129	880
130	62
143	282
144	26
156	233
157	35
158	34
184	25
185	999
186	114
187	14
203	41
