Mass spectrum: 5-METHYL-2-HEXANONE; EI-MS
Name: METHYL ISOAMYL KETONE
Formula: C7H14O
Exact mass: 114.10447
Instrument type: EI-MS
m/z	relative intensity
15	62
26	10
27	118
28	3
29	81
39	94
40	13
41	16
42	21
43	999
44	24
53	2
55	48
56	46
57	178
58	58
59	123
71	104
72	14
81	6
85	17
86	22
99	27
114	10
115	14
