Mass spectrum: HEXANOL; EI-MS
Name: HEXYL ALCOHOL
Formula: C6H14O
Exact mass: 102.10447
Instrument type: EI-MS
m/z	relative intensity
27	137
28	106
29	205
31	217
39	68
41	396
42	412
43	613
44	30
55	479
56	999
57	77
69	256
70	24
84	42
