Mass spectrum: 15-METHYLAMINOBICYCLO(8.3.2)PENTADECA-1(13),10(15),11-TRIEN-14-ONE; EI-MS
Formula: C16H23NO
Exact mass: 245.17796
Instrument type: EI-MS
m/z	relative intensity
53	55
55	100
56	50
57	3
65	60
67	85
68	50
69	5
70	50
77	155
78	80
79	13
80	60
81	55
91	290
92	9
93	90
94	110
95	65
96	4
97	40
103	90
104	100
105	19
106	90
107	130
108	130
109	9
110	40
111	40
115	110
116	6
117	200
118	170
119	100
120	21
121	165
122	250
123	75
124	5
128	30
129	70
130	240
131	24
132	340
133	240
134	240
135	13
136	100
137	90
141	50
143	15
144	285
145	250
146	310
147	16
148	200
149	140
150	90
157	18
158	200
159	145
160	260
161	15
162	195
163	200
171	120
172	11
173	110
174	325
175	120
176	29
177	90
184	70
185	130
186	62
187	150
188	230
189	110
190	7
197	110
198	45
199	85
200	4
202	155
203	50
204	50
212	6
214	90
215	50
216	130
217	9
218	40
227	65
228	280
229	5
230	395
231	65
244	90
245	999
246	205
