Mass spectrum: 2-PHENOXYETHYL PROPIONATE; EI-MS
Formula: C11H14O3
Exact mass: 194.09429
Instrument type: EI-MS
m/z	relative intensity
26	19
27	119
28	44
29	408
38	16
39	103
40	11
43	17
50	24
51	112
55	20
57	746
58	20
63	24
64	11
65	109
66	26
77	244
78	18
79	16
91	31
93	18
94	105
101	999
102	43
107	24
119	10
120	29
121	14
194	20
