Mass spectrum: 2,6,6,11-TETRAMETHYLTRICYCLO(5.4.0.0(2,8))UNDEC-10-EN-9-ONE; EI-MS
Name: VULGARONE B
Formula: C15H22O
Exact mass: 218.16707
Instrument type: EI-MS
m/z	relative intensity
40	23
41	465
42	50
43	16
51	49
53	127
54	19
55	46
56	23
65	99
67	216
68	2
69	347
70	35
77	338
78	3
79	178
80	56
81	169
82	3
83	61
91	460
92	42
93	18
94	56
95	272
96	47
103	5
105	291
106	61
107	286
108	40
109	484
110	347
111	14
115	5
116	9
117	47
119	371
120	10
121	516
122	296
123	225
124	3
128	28
129	28
131	47
133	26
134	122
135	554
136	324
137	3
143	14
145	56
147	967
148	999
149	196
150	131
157	28
161	45
162	286
163	14
175	296
176	2
189	14
203	315
204	42
218	64
219	94
220	10
