Mass spectrum: 2-ETHYL-1-HEXANOL; EI-MS
Formula: C8H18O
Exact mass: 130.13577
Instrument type: EI-MS
m/z	relative intensity
39	52
41	375
42	54
43	371
55	265
56	245
57	999
58	8
69	104
70	297
83	237
84	11
98	73
112	27
