Mass spectrum: COPAENE; EI-MS
Formula: C15H24
Exact mass: 204.1878
Instrument type: EI-MS
m/z	relative intensity
27	260
29	200
39	210
41	57
42	40
43	220
51	10
53	1
54	20
55	280
56	10
65	1
67	80
68	10
69	150
70	0
71	60
77	250
78	20
79	1
80	50
81	200
82	10
83	0
91	280
92	150
93	350
94	0
95	20
103	20
104	30
105	6
106	60
107	110
108	20
117	0
119	680
120	240
121	190
131	1
134	30
135	30
137	170
145	0
147	20
161	999
162	160
163	1
189	30
205	400
