Mass spectrum: PROPANAL ETHYL ISOPROPYL ACETAL; EI-MS
Formula: C8H18O2
Exact mass: 146.13068
Instrument type: EI-MS
m/z	relative intensity
14	15
15	34
19	12
26	2
27	200
28	31
29	254
30	2
31	159
39	57
40	12
41	15
42	38
43	280
44	15
45	11
47	420
57	71
58	46
59	999
60	30
75	612
76	18
87	35
88	18
101	101
117	115
