Mass spectrum: 3,6-DIACETYL-9-ISOPENTYLCARBAZOLE; EI-MS
Formula: C21H23NO2
Exact mass: 321.17288
Instrument type: EI-MS
m/z	relative intensity
41	33
43	179
45	10
55	1
146	34
164	17
165	10
178	6
179	26
192	16
193	39
220	2
221	240
222	58
236	21
264	999
265	185
306	636
307	120
321	80
322	149
