Mass spectrum: 1-CHLORO-2-TRIMETHYLSILOXYETHANE; EI-MS
Formula: C5H13ClOSi
Exact mass: 152.04242
Instrument type: EI-MS
m/z	relative intensity
43	41
45	34
47	13
58	11
59	17
63	19
65	23
73	272
74	28
75	23
79	27
93	999
94	81
95	376
96	27
100	59
102	174
103	19
137	310
138	30
139	109
140	11
152	0
