Mass spectrum: UNDECANEDIOIC ACID BIS(TRIMETHYLSILYL) ESTER; EI-MS
Name: DI(TRIMETHYLSILYL) UNDECANEDIOATE
Formula: C17H36O4Si2
Exact mass: 360.21521
Instrument type: EI-MS
m/z	relative intensity
43	98
45	143
55	305
67	10
69	192
73	999
74	101
75	79
83	84
94	84
117	254
129	21
135	101
147	162
149	185
204	10
217	167
229	195
345	421
346	13
347	37
