Mass spectrum: 2-HEPTANOL; EI-MS
Formula: C7H16O
Exact mass: 116.12012
Instrument type: EI-MS
m/z	relative intensity
27	19
29	50
31	13
41	105
42	44
43	128
44	114
45	999
46	37
55	241
56	96
57	108
58	11
59	11
69	42
70	96
71	18
83	188
84	12
98	109
99	46
101	89
115	12
116	1
