Mass spectrum: 4-METHYL-1,3-DIOXOLANE-2-ONE; EI-MS
Name: PROPYLENE CARBONATE
Formula: C4H6O3
Exact mass: 102.03169
Instrument type: EI-MS
m/z	relative intensity
43	939
44	69
45	35
56	999
57	92
58	74
87	96
102	7
103	119
