Mass spectrum: TRIMETHLOLETHANE; EI-MS
Formula: C5H12O3
Exact mass: 120.07864
Instrument type: EI-MS
m/z	relative intensity
27	41
29	57
31	154
39	32
41	326
42	29
43	398
44	50
45	25
47	30
53	18
54	77
55	46
56	149
57	888
58	46
59	94
71	204
72	999
73	55
83	16
84	31
89	10
