Mass spectrum: TRIETHYLENE GLYCOL DIMETHYL ETHER; EI-MS
Formula: C8H18O4
Exact mass: 178.12051
Instrument type: EI-MS
m/z	relative intensity
29	19
31	25
43	10
45	56
58	382
59	999
60	36
73	11
87	106
88	17
89	138
90	10
101	15
102	50
103	200
104	12
119	10
133	84
178	2
