Mass spectrum: 3-PHENYL-2-(TRIMETHYLSILYL)OXYBENZOIC ACIDTRIMETHYLSILYL ESTER; EI-MS
Name: TRIMETHYLSILYL 3-PHENYL-2-TRIMETHYLSILOXYBENZOATE
Formula: C19H26O3Si2
Exact mass: 358.14205
Instrument type: EI-MS
m/z	relative intensity
45	180
73	999
74	74
75	8
133	31
139	35
147	54
149	6
152	31
165	35
211	82
269	4
285	31
309	31
343	847
344	24
345	74
