Mass spectrum: DIPROPYL ETHER; EI-MS
Formula: C6H14O
Exact mass: 102.10447
Instrument type: EI-MS
m/z	relative intensity
15	18
26	13
27	155
28	22
29	31
31	69
39	64
40	12
41	198
42	46
43	999
44	36
45	14
55	43
59	37
73	195
102	86
