Mass spectrum: ETHYL PHENYLACETATE; EI-MS
Formula: C10H12O2
Exact mass: 164.08373
Instrument type: EI-MS
m/z	relative intensity
40	26
44	24
89	28
90	71
91	999
92	136
105	39
118	107
119	38
164	345
165	37
