Mass spectrum: 6-METHOXY-3-METHYL-1,2,3,4-TETRAHYDRO-GAMMA-CARBOLINE; EI-MS
Formula: C13H16N2O
Exact mass: 216.12626
Instrument type: EI-MS
m/z	relative intensity
41	67
43	60
44	51
45	8
55	42
57	128
69	67
71	6
128	26
129	35
130	50
158	37
173	999
174	97
215	51
216	129
