Mass spectrum: ORTHO-SEC-BUTYLPHENOL; EI-MS
Formula: C10H14O
Exact mass: 150.10447
Instrument type: EI-MS
m/z	relative intensity
26	11
27	112
29	62
38	2
39	120
40	17
41	50
42	2
50	29
51	69
52	23
53	3
55	29
62	21
63	32
64	2
65	50
66	21
77	185
78	3
79	18
91	127
103	182
104	2
108	15
115	20
117	109
121	999
122	100
135	23
150	167
151	15
