Mass spectrum: 1-OXO-1H-PYRIMIDO(1,2-A)QUINOLINE-2-CARBOXYLIC ACID METHYL ESTER; EI-MS
Formula: C14H10N2O3
Exact mass: 254.06914
Instrument type: EI-MS
m/z	relative intensity
64	150
69	200
77	84
101	15
128	720
129	200
148	70
155	5
168	280
169	79
194	34
195	31
196	84
223	220
224	38
226	24
239	31
240	11
254	999
255	170
