Mass spectrum: 1,4-DIISOPROPYL-1,4-DIMETHYL-2-TETRAZENE; EI-MS
Formula: C8H20N4
Exact mass: 172.1688
Instrument type: EI-MS
m/z	relative intensity
27	189
28	122
29	40
30	28
39	47
40	12
41	255
42	31
43	879
44	255
45	511
46	1
54	8
55	11
56	233
57	20
58	194
59	69
70	83
71	3
72	999
73	51
87	155
100	5
101	6
115	8
157	19
172	42
173	33
