Mass spectrum: 1,1-BIS(TRIMETHYLSILYL)PROPENE; EI-MS
Formula: C9H22Si2
Exact mass: 186.126
Instrument type: EI-MS
m/z	relative intensity
43	58
45	160
46	13
55	13
58	22
59	50
67	15
69	20
72	15
73	999
74	74
75	32
83	74
85	24
97	554
98	132
99	43
100	16
113	30
155	11
171	235
172	46
173	23
186	84
187	17
