Mass spectrum: 2-ETHYLTHIAZOLE; EI-MS
Formula: C5H7NS
Exact mass: 113.02992
Instrument type: EI-MS
m/z	relative intensity
27	19
28	22
29	25
39	19
41	50
45	48
54	39
56	38
58	999
59	130
60	47
68	31
85	31
86	20
98	168
111	20
112	469
113	557
114	51
