Mass spectrum: 3-METHYLPHENYLACETIC ACID METHYL ESTER; EI-MS
Name: 3-TOLYLACETIC ACID METHYL ESTER
Formula: C10H12O2
Exact mass: 164.08373
Instrument type: EI-MS
m/z	relative intensity
39	56
50	18
51	58
52	2
53	18
59	42
62	8
63	3
65	26
77	139
78	58
79	10
89	8
91	21
103	82
104	5
105	999
106	104
133	8
164	31
165	34
