Mass spectrum: DIPHENYLETHER; EI-MS
Formula: C12H10O
Exact mass: 170.07316
Instrument type: EI-MS
m/z	relative intensity
39	160
40	20
50	100
51	390
52	25
55	25
58	10
62	2
63	55
64	20
65	80
66	3
68	20
69	10
69.5	10
70	4
70.5	15
71	40
71.5	10
72	2
74	25
75	25
76	30
77	48
78	40
84	15
85	25
89	1
94	50
102	10
114	10
115	18
116	25
139	35
140	15
141	48
142	400
143	50
153	10
155	1
168	20
169	230
170	999
171	15
172	20
