Mass spectrum: 3-ISOPROPYL-6-METHYL-2,5-PIPERAZINEDIONE; EI-MS
Name: CYCLOALANYLVALINE
Formula: C8H14N2O2
Exact mass: 170.10553
Instrument type: EI-MS
m/z	relative intensity
28	21
30	17
43	41
44	53
45	18
55	32
56	46
57	3
58	10
69	35
70	12
71	4
72	247
73	24
83	14
84	8
85	60
99	210
100	31
111	1
112	14
113	191
114	13
127	14
128	999
129	73
155	13
170	8
