Mass spectrum: 1-ETHYLINDOLE; EI-MS
Formula: C10H11N
Exact mass: 145.08915
Instrument type: EI-MS
m/z	relative intensity
27	10
29	40
39	32
42	16
51	55
52	15
63	90
69	43
77	130
89	235
90	85
103	70
115	70
116	66
130	999
131	145
144	28
145	501
146	75
