Mass spectrum: 2,3-DIHYDRO-2-HEXYL-5-METHYLFURAN-3-ONE; EI-MS
Formula: C11H18O2
Exact mass: 182.13068
Instrument type: EI-MS
m/z	relative intensity
39	203
40	200
41	258
42	6
43	22
55	106
56	41
57	6
67	26
68	170
69	76
70	2
71	46
85	64
97	54
98	999
99	58
111	522
112	40
182	40
