Mass spectrum: 2-METHYLFURAN; EI-MS
Formula: C5H6O
Exact mass: 82.04186
Instrument type: EI-MS
m/z	relative intensity
26	83
27	345
28	205
29	220
37	40
38	64
39	489
40	158
41	46
43	203
49	22
50	118
51	130
52	72
53	742
54	146
55	44
81	550
82	999
83	52
