Mass spectrum: CYCLOHEXANONE; EI-MS
Formula: C6H10O
Exact mass: 98.07316
Instrument type: EI-MS
m/z	relative intensity
15	30
26	65
27	300
28	110
29	63
37	14
38	38
39	340
40	59
41	383
42	678
43	111
44	10
50	19
51	26
53	34
54	63
55	999
56	104
57	11
69	253
70	220
71	13
80	37
83	71
97	15
98	364
99	23
