Mass spectrum: 1-OXO-1H-PYRIMIDO(1,2-A)QUINOLINE-2-CARBOXYLIC ACID BUTYL ESTER; EI-MS
Formula: C17H16N2O3
Exact mass: 296.11609
Instrument type: EI-MS
m/z	relative intensity
64	80
77	78
101	140
128	999
129	240
140	140
155	100
168	47
169	96
194	32
195	230
196	60
197	94
212	340
213	47
223	95
224	160
240	460
241	120
268	3
296	600
297	170
