Mass spectrum: 3-PHENYL-1,1-BIS(METHYLTHIO)PROPANE; EI-MS
Formula: C11H16S2
Exact mass: 212.06934
Instrument type: EI-MS
m/z	relative intensity
47	23
48	80
61	20
91	117
92	14
115	47
116	66
117	999
118	103
149	33
164	403
165	335
166	55
167	15
212	177
213	23
214	17
