Mass spectrum: HUMULENE; EI-MS
Formula: C15H24
Exact mass: 204.1878
Instrument type: EI-MS
m/z	relative intensity
26	6
27	75
28	13
29	9
39	91
40	22
41	225
42	2
43	98
50	5
51	20
52	1
53	102
54	12
55	111
56	1
57	10
63	5
65	35
66	2
67	105
68	33
69	45
70	1
75	5
77	107
78	25
79	14
80	350
81	86
82	72
83	0
89	8
90	5
91	118
92	17
93	999
94	135
95	77
96	0
103	8
105	86
106	28
107	1
108	42
109	113
110	15
111	1
115	6
117	8
119	72
120	2
121	265
122	88
123	25
133	2
134	20
135	26
136	45
137	1
146	8
147	140
148	31
149	1
161	27
162	8
175	5
189	2
204	72
205	11
