Mass spectrum: NONANAL DIETHYL ACETAL; EI-MS
Formula: C13H28O2
Exact mass: 216.20893
Instrument type: EI-MS
m/z	relative intensity
26	11
27	145
29	275
31	114
39	40
41	206
42	31
43	145
44	54
45	73
46	13
47	355
53	16
54	18
55	153
56	24
57	491
58	24
59	29
67	33
68	30
69	227
70	21
71	22
72	40
75	306
81	35
82	39
83	117
85	358
86	19
95	26
96	21
97	12
99	20
103	999
104	44
127	18
141	10
170	26
171	194
172	22
