Mass spectrum: 3-METHOXYPROPYLAMINE; EI-MS
Name: 3-AMINOPROPYL METHYL ETHER
Formula: C4H11NO
Exact mass: 89.08406
Instrument type: EI-MS
m/z	relative intensity
15	34
18	56
27	19
28	73
29	53
30	999
31	53
33	23
39	10
41	33
42	34
43	21
44	39
45	161
56	86
57	67
58	14
59	32
71	22
72	290
73	14
74	41
