Mass spectrum: 2-HEXYLDECANOIC ACID METHYL ESTER; EI-MS
Formula: C17H34O2
Exact mass: 270.25588
Instrument type: EI-MS
m/z	relative intensity
41	99
55	471
57	247
59	8
67	52
69	275
71	151
74	17
83	137
85	66
87	999
88	8
97	77
98	49
101	272
115	34
129	201
143	319
157	143
158	20
159	68
171	184
185	68
186	45
187	57
199	148
270	46
