Mass spectrum: P-CRESYL ISOVALERATE; EI-MS
Formula: C12H16O2
Exact mass: 192.11503
Instrument type: EI-MS
m/z	relative intensity
27	73
29	76
39	90
41	151
42	22
43	54
50	14
51	34
52	23
53	28
55	16
57	334
58	13
63	14
65	25
69	19
77	116
78	31
79	45
80	18
85	95
90	12
91	45
107	147
108	999
109	99
135	12
192	61
