Mass spectrum: 1-METHYL-2-PROPENYLHYDRAZINE; EI-MS
Formula: C4H10N2
Exact mass: 86.0844
Instrument type: EI-MS
m/z	relative intensity
26	67
27	401
28	517
29	51
30	102
31	285
32	999
39	26
40	39
41	315
42	231
43	8
44	252
45	33
50	32
51	4
52	24
53	120
54	116
55	62
56	207
57	35
58	17
59	14
68	31
69	22
70	20
71	54
72	24
85	13
86	301
87	21
