Mass spectrum: (Z)-9-OCTADECENOIC ACID METHYL ESTER; EI-MS
Name: METHYL OLEATE
Formula: C19H36O2
Exact mass: 296.27153
Instrument type: EI-MS
m/z	relative intensity
40	45
41	229
42	55
43	457
44	54
54	139
55	958
56	150
57	399
58	40
59	74
67	161
68	297
69	948
70	299
71	139
73	119
74	999
75	193
79	34
80	54
81	379
82	334
83	756
84	845
85	179
87	817
88	40
91	15
94	48
95	404
96	672
97	868
98	717
99	37
101	128
107	32
109	207
110	374
111	329
112	145
113	56
114	106
115	150
116	37
120	34
123	273
124	122
125	227
126	40
127	28
128	52
129	96
133	30
137	176
138	77
139	41
140	21
141	100
149	51
151	125
152	191
153	36
155	45
165	103
167	26
169	35
176	17
180	154
181	105
207	26
208	28
220	38
221	52
222	244
223	27
235	15
236	46
264	428
265	224
266	27
267	14
296	68
297	12
