Mass spectrum: METHYLEUGENOL; EI-MS
Formula: C11H14O2
Exact mass: 178.09938
Instrument type: EI-MS
m/z	relative intensity
40	140
41	10
42	30
43	10
44	30
50	90
51	215
52	75
53	80
54	10
55	70
57	40
62	65
63	155
64	60
65	235
66	60
67	35
68	20
74	40
75	45
76	40
77	250
78	125
79	225
80	35
89	80
90	60
91	505
92	125
93	30
94	20
95	45
101	10
102	40
103	390
104	90
105	195
106	60
107	275
108	40
109	10
115	125
116	45
117	70
118	30
119	60
120	80
121	40
122	20
123	15
131	80
132	45
133	45
134	15
135	180
136	25
145	10
146	40
147	320
148	50
149	35
150	10
151	155
152	20
161	25
162	35
163	330
164	50
165	20
166	30
177	45
178	999
179	125
