Mass spectrum: PHENYLACETALDEHYDE DIMETHYL ACETAL; EI-MS
Formula: C10H14O2
Exact mass: 166.09938
Instrument type: EI-MS
m/z	relative intensity
15	22
29	16
31	52
39	39
47	128
51	32
63	19
65	70
75	999
76	40
77	39
89	15
91	201
92	20
103	89
104	10
105	31
117	10
134	14
135	149
136	13
