Mass spectrum: TRANS-3-HEXENOL; EI-MS
Formula: C6H12O
Exact mass: 100.08882
Instrument type: EI-MS
m/z	relative intensity
15	23
26	24
27	222
29	133
30	12
31	263
38	27
39	299
40	39
41	999
42	213
43	90
44	67
45	21
50	22
51	34
52	13
53	93
54	84
55	350
56	47
57	108
65	20
66	12
67	504
68	51
69	383
70	110
71	18
72	27
79	11
81	33
82	336
83	31
100	21
