Mass spectrum: 1,3-DIMETHYL-5-PYLAZOLYL-2,4-DICHLOROBENZOATE; EI-MS
Formula: C12H10Cl2N2O2
Exact mass: 284.01193
Instrument type: EI-MS
m/z	relative intensity
15	48
39	46
40	48
43	81
74	30
75	36
109	57
110	24
111	41
145	113
147	70
173	999
174	78
175	598
176	48
177	103
