Mass spectrum: N-ACETYLALANYLPHENYLALANYLGLYCINE METHYL ESTER; EI-MS
Formula: C17H23N3O5
Exact mass: 349.16377
Instrument type: EI-MS
m/z	relative intensity
90	16
114	381
115	23
119	4
120	999
121	92
131	106
145	6
146	272
147	35
160	21
187	2
203	15
218	140
219	711
220	38
221	72
232	27
233	74
234	3
236	72
237	18
260	55
261	6
263	37
305	92
306	36
348	18
349	55
