Mass spectrum: DECAN-1,10-DIOL DIMETHACRYLATE; EI-MS
Formula: C18H30O4
Exact mass: 310.21441
Instrument type: EI-MS
m/z	relative intensity
27	17
28	36
29	29
39	6
40	31
41	426
42	50
43	5
54	133
55	270
56	32
57	4
66	27
67	203
68	262
69	999
70	116
71	26
79	17
80	2
81	255
82	265
83	260
84	3
86	31
87	309
88	27
93	1
94	19
95	200
96	210
97	13
98	36
99	15
107	10
108	5
109	128
110	159
111	31
112	3
113	15
114	3
121	14
122	1
123	24
124	17
125	46
126	7
127	48
128	24
129	3
136	9
137	50
138	108
139	31
150	0
151	3
152	2
153	9
154	6
155	31
172	31
173	17
208	1
224	9
264	10
282	21
310	1
311	5
