Mass spectrum: P-ETHOXYPHENOL; EI-MS
Name: HYDROQUINONE MONOETHYL ETHER
Formula: C8H10O2
Exact mass: 138.06808
Instrument type: EI-MS
m/z	relative intensity
15	14
26	43
27	138
28	14
29	66
38	20
39	83
40	12
50	19
51	31
52	35
53	102
54	65
55	59
62	17
63	36
64	22
65	45
66	10
81	172
82	72
93	13
95	12
109	136
110	999
111	55
138	437
139	38
