Mass spectrum: PARA-AMINOBENZOIC ACID PROPYL ESTER; EI-MS
Formula: C10H13NO2
Exact mass: 179.09463
Instrument type: EI-MS
m/z	relative intensity
27	22
28	12
39	55
41	39
43	12
52	12
63	19
64	20
65	185
66	20
78	19
91	20
92	211
93	26
108	38
120	999
121	94
137	464
138	34
179	248
180	24
