Mass spectrum: 2-(4-(4-PHENOXYPHENYL)-6-PHENYL-2-PYRIMIDINYLAMINO)BENZOIC ACID METHYL ESTER; EI-MS
Formula: C30H23N3O3
Exact mass: 473.17394
Instrument type: EI-MS
m/z	relative intensity
32	111
44	13
51	14
77	6
78	10
90	22
102	11
116	1
117	13
129	11
145	15
165	1
207	15
220	22
307	13
308	2
309	18
318	13
319	17
320	4
321	36
337	11
412	29
413	6
414	999
415	282
416	44
440	6
441	24
442	22
472	32
473	24
474	78
475	13
