Mass spectrum: ETHYLENE BRASYLATE; EI-MS
Formula: C15H26O4
Exact mass: 270.18311
Instrument type: EI-MS
m/z	relative intensity
15	31
27	168
28	109
29	288
31	25
39	119
40	38
41	664
42	303
43	386
44	55
45	106
53	51
54	89
55	999
56	174
57	125
58	84
59	37
60	32
61	43
67	189
68	111
69	328
70	111
71	83
73	44
79	53
80	52
81	175
82	99
83	312
84	443
85	81
86	672
87	242
93	48
94	48
95	105
96	85
97	196
98	798
99	470
100	50
101	30
104	42
105	24
107	57
108	29
109	52
110	39
111	114
112	281
113	68
117	25
121	34
122	23
123	48
124	49
125	179
126	49
127	26
137	33
138	25
139	38
141	39
149	74
152	30
155	92
159	35
163	33
166	32
167	26
173	66
180	54
181	35
182	24
187	220
188	27
208	62
209	25
211	171
212	28
227	413
228	64
270	53
