Mass spectrum: N,N-DIPROPYLNITROSOAMINE; EI-MS
Formula: C6H14N2O
Exact mass: 130.11061
Instrument type: EI-MS
m/z	relative intensity
54	26
56	77
57	33
58	291
59	46
69	22
70	999
71	189
101	46
113	37
130	53
