Mass spectrum: 1,1-DIETHYL-2-(1-METHYLPENTYL)HYDRAZINE; EI-MS
Formula: C10H24N2
Exact mass: 172.19395
Instrument type: EI-MS
m/z	relative intensity
27	46
28	28
29	90
30	3
31	34
39	11
41	47
42	7
43	80
44	106
45	10
55	1
56	27
57	26
58	39
59	26
60	12
70	9
71	12
72	5
73	60
85	12
86	6
87	999
88	72
99	9
100	11
115	10
116	8
143	28
157	41
172	21
173	33
