Mass spectrum: (E)-4-(2,6,6-TRIMETHYL-1-CYCLOHEXEN-1-YL)-3-BUTEN-2-ONE; EI-MS
Name: BETA-IONONE
Formula: C13H20O
Exact mass: 192.15142
Instrument type: EI-MS
m/z	relative intensity
52	24
53	11
54	36
55	17
65	39
67	35
69	56
71	30
77	65
78	16
79	66
80	10
81	52
91	99
92	17
93	112
94	19
95	79
96	14
105	64
106	12
107	82
108	15
109	64
110	20
117	16
119	62
121	83
122	69
123	43
131	16
133	60
134	16
135	141
136	44
147	11
149	71
150	11
159	44
161	15
162	33
177	999
178	142
179	10
192	101
193	16
