Mass spectrum: 9-METHYL-9-TRIMETHYLSILYL-9-SILAFLUORENE; EI-MS
Formula: C16H20Si2
Exact mass: 268.11035
Instrument type: EI-MS
m/z	relative intensity
43	18
44	27
45	55
53	17
73	431
74	39
75	26
77	10
78	22
153	16
154	16
165	134
166	25
167	21
168	10
169	12
179	26
180	48
181	22
193	49
194	17
195	999
196	196
197	54
253	126
254	32
255	13
268	309
269	89
270	34
