Mass spectrum: 3-HYDROXYBENZALDEHYDE; EI-MS
Formula: C7H6O2
Exact mass: 122.03678
Instrument type: EI-MS
m/z	relative intensity
26	14
27	26
28	281
29	63
31	25
32	73
37	46
38	107
39	374
40	58
41	13
43	13
49	14
50	69
51	57
53	70
55	41
57	10
61	43
62	72
63	146
64	66
65	469
66	128
67	13
69	40
73	12
74	38
75	25
76	17
77	14
92	27
93	522
94	105
119	12
121	899
122	999
123	84
