Mass spectrum: ETHYLENE GLYCOL; EI-MS
Formula: C2H6O2
Exact mass: 62.03678
Instrument type: EI-MS
m/z	relative intensity
27	33
28	18
29	42
30	1
31	999
32	121
33	415
42	1
43	74
44	28
45	19
61	2
62	61
