Mass spectrum: HEXYLBENZENE; EI-MS
Formula: C12H18
Exact mass: 162.14085
Instrument type: EI-MS
m/z	relative intensity
92	999
105	56
119	63
133	13
160	35
162	129
163	70
164	28
