Mass spectrum: BETA-PHENETHYL ALCOHOL; EI-MS
Name: BETA-PHENYLETHYL ALCOHOL
Formula: C8H10O
Exact mass: 122.07316
Instrument type: EI-MS
m/z	relative intensity
31	10
65	39
77	10
78	32
91	991
92	999
93	75
103	16
104	28
122	572
123	49
