Mass spectrum: 3,5-DIMETHOXY-4-(TRIMETHYLSILYL)OXYBENZOICACID TRIMETHYLSILYL ESTR; EI-MS
Name: TRIMETHYLSILYL 3,5-DIMETHOXY-4-TRIMETHYLSILOXYBENZOATE
Formula: C15H26O5Si2
Exact mass: 342.13188
Instrument type: EI-MS
m/z	relative intensity
45	150
59	97
73	725
75	16
77	132
89	91
137	64
142	30
149	179
156	82
179	61
195	7
223	165
253	404
254	91
283	22
297	666
298	165
299	76
312	79
313	200
314	61
327	999
328	27
329	106
342	598
343	159
344	44
