Mass spectrum: 3-METHYLMERCAPTOPYRIDINE; EI-MS
Formula: C6H7NS
Exact mass: 125.02992
Instrument type: EI-MS
m/z	relative intensity
39	240
45	80
50	80
51	13
52	60
57	70
78	90
79	2
80	70
83	190
92	100
110	2
124	90
125	999
126	80
127	50
