Mass spectrum: L-PROLINE; EI-MS
Name: (S)-(-)-PROLINE
Formula: C5H9NO2
Exact mass: 115.06333
Instrument type: EI-MS
m/z	relative intensity
14	12
15	50
17	10
18	33
26	32
27	119
28	437
29	42
30	55
37	13
38	29
39	151
40	46
41	319
42	101
43	265
44	26
45	184
53	12
54	11
67	13
68	138
69	52
70	999
71	51
115	10
116	9
