Mass spectrum: BIS-(4-AMINO-CYCLOHEXYL)-METHANE; EI-MS
Formula: C13H26N2
Exact mass: 210.2096
Instrument type: EI-MS
m/z	relative intensity
17	60
28	467
29	40
30	10
32	141
41	95
42	35
43	27
44	116
53	36
55	95
56	999
57	93
67	91
68	39
69	8
70	50
77	41
79	65
80	5
81	117
82	80
83	35
91	4
93	37
94	61
95	75
96	15
97	55
98	42
99	115
106	4
108	69
109	34
110	79
111	3
112	50
138	61
147	38
164	6
168	47
176	107
181	42
192	15
193	213
194	60
210	87
211	30
