Mass spectrum: 1,3-CYCLOHEXANEDIOL; EI-MS
Formula: C6H12O2
Exact mass: 116.08373
Instrument type: EI-MS
m/z	relative intensity
42	510
43	410
44	999
54	69
70	440
73	509
80	512
98	62
116	30
