Mass spectrum: DICYCLOHEXYL PHTHALATE; EI-MS
Formula: C20H26O4
Exact mass: 330.18311
Instrument type: EI-MS
m/z	relative intensity
50	10
53	12
54	197
55	15
56	18
65	22
67	62
76	2
77	13
79	10
81	25
82	5
83	111
84	8
93	18
99	2
105	16
121	18
122	23
123	1
149	999
150	189
151	18
167	59
168	51
169	8
225	10
231	2
232	12
249	139
250	23
331	7
