Mass spectrum: ACETOPHENONE; EI-MS
Formula: C8H8O
Exact mass: 120.05751
Instrument type: EI-MS
m/z	relative intensity
38	30
39	62
40	17
43	153
50	156
51	347
52	30
52.5	1
62	24
63	37
65	26
74	5
75	31
76	36
77	819
78	9
91	24
105	999
106	77
120	31
121	29
