Mass spectrum: N-2-BUTENYL-N-BUTYL-3-OXOBUTANAMIDE; EI-MS
Formula: C12H21NO2
Exact mass: 211.15723
Instrument type: EI-MS
m/z	relative intensity
27	133
29	203
30	472
39	135
41	201
42	158
43	418
44	71
53	63
54	51
55	626
56	109
57	104
68	71
69	139
70	185
72	92
82	61
84	999
85	126
112	87
126	368
127	123
128	63
168	77
212	51
