Mass spectrum: METHYL SEC-BUTYL ETHER; EI-MS
Formula: C5H12O
Exact mass: 88.08882
Instrument type: EI-MS
m/z	relative intensity
14	38
15	167
26	31
27	21
28	49
29	348
30	20
31	12
33	20
38	25
39	76
40	2
41	171
42	26
43	112
45	12
53	32
54	35
55	54
56	3
57	999
58	37
73	129
87	2
88	20
