Mass spectrum: 2-CHLORONAPHTHALENE; EI-MS
Formula: C10H7Cl
Exact mass: 162.02363
Instrument type: EI-MS
m/z	relative intensity
50	43
51	41
61	22
62	4
63	82
68	26
74	62
75	8
76	28
77	53
81	68
82	3
87	22
98	25
99	24
101	4
125	21
126	172
127	334
128	4
162	999
163	107
164	288
165	32
