Mass spectrum: HENEICOSANOIC ACID TRIMETHYLSILYL ESTER; EI-MS
Formula: C24H50O2Si
Exact mass: 398.35801
Instrument type: EI-MS
m/z	relative intensity
43	204
45	76
55	157
57	17
67	76
69	89
71	94
73	50
74	91
75	503
81	99
83	9
85	60
95	102
97	99
117	999
118	91
129	356
131	146
132	41
133	102
145	317
201	102
207	12
355	60
383	364
398	65
