Mass spectrum: 2-(PHENYLETHYNYL)-1,1,1,2,3,3,3-HEPTAMETHYLTRISILANE; EI-MS
Formula: C15H26Si3
Exact mass: 290.13423
Instrument type: EI-MS
m/z	relative intensity
43	148
45	219
46	13
47	15
53	31
55	15
59	66
67	12
69	12
73	999
74	83
75	97
76	15
77	14
83	15
85	15
91	13
93	14
99	22
101	79
102	43
103	20
105	70
115	29
116	699
117	111
118	56
119	13
125	10
129	86
130	17
131	63
132	10
133	11
135	247
136	33
137	11
140	72
141	15
142	10
143	22
145	39
155	33
159	252
160	41
161	18
175	10
177	22
187	68
188	13
191	26
201	21
202	32
203	11
217	275
218	69
219	28
275	93
276	29
277	15
290	172
291	57
292	27
