Mass spectrum: 4-AMINO-5-CYANO-2-METHYLPYRIMIDINE; EI-MS
Formula: C6H6N4
Exact mass: 134.05925
Instrument type: EI-MS
m/z	relative intensity
15	65
27	36
28	101
38	36
39	65
40	55
41	96
42	459
43	54
51	82
52	58
53	15
65	64
66	317
67	60
91	22
92	123
93	31
94	731
95	46
106	9
107	44
134	999
135	107
