Mass spectrum: ISOPROPYL CELLOSOLVE; EI-MS
Name: 2-ISOPROPOXYETHANOL
Formula: C5H12O2
Exact mass: 104.08373
Instrument type: EI-MS
m/z	relative intensity
18	24
27	120
29	20
31	140
33	57
41	177
42	99
43	999
44	36
45	648
46	13
55	19
58	15
59	83
61	29
63	33
73	170
89	112
104	3
