Mass spectrum: 2,5-DIMETHYLPHENOL; EI-MS
Formula: C8H10O
Exact mass: 122.07316
Instrument type: EI-MS
m/z	relative intensity
51	145
52	54
53	95
55	31
59	21
60	49
61	30
62	28
63	41
64	27
65	68
66	23
76	67
77	344
78	143
79	217
80	20
90	46
91	198
92	35
93	64
94	42
102	22
103	75
104	63
105	32
106	177
107	999
108	80
120	44
121	456
122	923
123	80
