Mass spectrum: METHYL 2-TRIMETHYLSILOXY-EICOSANOATE; EI-MS
Formula: C24H50O3Si
Exact mass: 414.35292
Instrument type: EI-MS
m/z	relative intensity
36	16
39	32
40	4
41	127
42	38
43	255
44	11
45	4
47	32
48	15
49	11
50	1
51	10
53	19
54	22
55	14
56	38
57	212
58	18
59	8
61	19
66	11
67	62
68	3
69	133
70	27
71	101
72	2
73	607
74	70
75	158
76	2
77	21
79	18
80	11
81	8
82	45
83	135
84	21
85	5
87	27
88	12
89	259
90	3
91	52
92	10
93	15
94	1
95	65
96	18
97	129
98	2
99	18
101	35
102	11
103	16
104	21
105	24
107	23
108	1
109	39
110	15
111	59
112	1
113	14
115	34
116	22
117	2
119	30
121	11
123	20
124	1
125	24
127	11
129	138
130	2
131	24
133	4
135	11
137	1
139	12
143	24
145	25
146	3
147	10
148	10
149	20
159	8
160	13
161	16
162	20
167	1
171	12
177	10
185	18
193	0
219	11
221	10
267	2
281	2
282	3
283	4
339	12
341	1
353	19
354	45
355	999
356	31
357	77
358	16
371	40
372	2
397	15
398	29
399	380
400	11
401	36
402	10
414	21
415	2
