Mass spectrum: ACETONITRILE; EI-MS
Formula: C2H3N
Exact mass: 41.02655
Instrument type: EI-MS
m/z	relative intensity
12	20
13	13
14	63
15	12
26	13
27	13
38	105
39	184
40	529
41	999
42	26
