Mass spectrum: DIETHYLHYDRAZONE BETA-METHYLACRYLALDEHYDE; EI-MS
Name: 2-BUTENAL DIETHYLHYDRAZONE
Formula: C8H16N2
Exact mass: 140.13135
Instrument type: EI-MS
m/z	relative intensity
26	28
27	269
28	538
29	20
30	315
39	246
40	55
41	39
42	338
43	65
44	211
51	2
52	18
53	100
54	81
55	8
56	296
57	39
58	331
59	2
67	37
68	269
69	115
70	15
71	32
72	77
80	69
81	4
82	108
83	208
84	50
94	2
95	58
96	277
97	41
110	4
111	177
112	20
125	999
126	6
139	31
140	923
141	73
142	5
