Mass spectrum: 4-BENZYL-3,5-DIMETHYLPYRAZOLE; EI-MS
Formula: C12H14N2
Exact mass: 186.1157
Instrument type: EI-MS
m/z	relative intensity
26	24
27	83
28	230
29	2
30	14
38	23
39	171
40	5
41	110
42	434
43	20
50	6
51	167
52	113
53	41
54	1
62	23
63	79
64	27
65	13
66	42
67	28
68	115
69	1
73	14
74	23
75	33
76	4
77	158
78	53
79	19
80	2
85	16
89	45
90	16
91	16
92	42
93	33
95	32
101	2
102	64
103	95
104	22
107	2
108	119
109	999
110	79
115	12
116	33
117	24
127	37
128	7
129	37
130	61
131	11
140	1
141	39
142	31
143	31
144	22
145	54
154	12
155	15
156	1
168	17
169	23
170	14
171	62
172	85
183	16
184	10
185	34
186	901
187	126
