Mass spectrum: ALLYL ALCOHOL; EI-MS
Name: 2-PROPEN-1-OL
Formula: C3H6O
Exact mass: 58.04186
Instrument type: EI-MS
m/z	relative intensity
14	13
15	26
25	22
26	118
27	280
28	172
29	295
30	163
31	441
37	43
38	61
39	297
40	95
41	59
42	13
43	50
53	16
55	54
56	17
57	999
58	352
59	15
