Mass spectrum: 3-AMINO-1-METHYL-5H-PYRIDO(4,3-B)INDOLE; EI-MS
Name: TRP-P-2
Formula: C12H11N3
Exact mass: 197.0953
Instrument type: EI-MS
m/z	relative intensity
41	40
42	43
43	49
44	56
45	13
50	26
51	37
52	23
53	10
55	30
56	15
57	0
58	24
60	12
62	23
63	44
64	29
65	18
67	16
69	20
70	23
71	47
72	15
73	19
74	29
75	46
76	42
77	77
78	28
79	15
81	13
83	14
84	63
85	215
86	17
87	2
88	19
89	24
90	17
91	22
97	11
98	164
99	37
100	32
101	73
102	52
103	26
113	2
114	29
115	85
116	37
117	17
125	19
126	41
127	112
128	104
129	62
130	38
131	13
140	4
141	24
142	56
143	23
152	46
153	84
154	70
155	161
156	62
157	246
168	32
169	162
170	133
179	208
180	284
181	29
182	2
196	89
197	999
198	192
199	14
