Mass spectrum: 2-METHYLCYCLOPENTANONE; EI-MS
Formula: C6H10O
Exact mass: 98.07316
Instrument type: EI-MS
m/z	relative intensity
15	21
26	42
27	217
28	18
29	86
37	13
38	29
39	21
40	58
41	391
42	999
43	12
50	16
51	21
53	34
54	4
55	303
56	126
57	16
69	30
70	172
71	13
80	41
83	10
97	26
98	392
99	28
