Mass spectrum: 6-TERT-BUTYLMERCAPTO-2-PICOLINE; EI-MS
Formula: C10H15NS
Exact mass: 181.09252
Instrument type: EI-MS
m/z	relative intensity
29	80
39	140
41	110
57	12
65	70
80	80
81	440
92	1
125	999
126	120
127	50
166	0
181	70
182	10
