Mass spectrum: ETHYL 2-FUROATE; EI-MS
Name: 2-FURANCARBOXYLIC ACID ETHYL ESTER
Formula: C7H8O3
Exact mass: 140.04734
Instrument type: EI-MS
m/z	relative intensity
27	20
29	121
39	167
40	40
41	10
42	20
45	300
51	10
53	10
55	20
56	10
67	55
68	339
69	10
81	10
84	80
94	10
95	999
96	528
97	99
112	708
113	139
114	10
125	30
140	539
141	86
