Mass spectrum: TESTOSTERONE; EI-MS
Formula: C19H28O2
Exact mass: 288.20893
Instrument type: EI-MS
m/z	relative intensity
41	414
43	174
53	151
55	275
67	246
77	233
79	350
81	19
91	361
93	255
94	103
95	19
105	255
107	231
109	214
119	15
121	161
122	111
123	192
124	999
125	101
131	129
133	142
134	11
146	116
147	322
148	116
165	11
203	177
228	127
246	368
288	72
289	159
