Mass spectrum: 1-(4-CHLOROBUTYL)-2,2,6,6-TETRAMETHYL-2,6-DISILAPIPERIDINE; EI-MS
Formula: C11H26ClNSi2
Exact mass: 263.12923
Instrument type: EI-MS
m/z	relative intensity
41	38
43	40
45	37
59	188
73	113
85	47
86	55
88	68
93	39
99	40
100	29
117	18
130	18
144	36
158	18
170	29
186	999
187	197
188	93
206	93
207	17
208	39
263	12
