Mass spectrum: BENZYL SALICYLATE; EI-MS
Formula: C14H12O3
Exact mass: 228.07864
Instrument type: EI-MS
m/z	relative intensity
53	11
63	27
64	16
65	124
77	16
89	16
91	999
92	98
93	13
121	25
228	108
229	15
