Mass spectrum: N-(3-PHENYLBUTYRYL)PYRROLIDIN-2-ONE; EI-MS
Formula: C14H17NO2
Exact mass: 231.12593
Instrument type: EI-MS
m/z	relative intensity
69	25
77	10
78	30
79	30
84	25
85	55
86	999
87	60
91	45
98	180
99	60
100	10
103	60
104	30
105	400
106	40
115	10
116	15
117	105
118	980
119	110
120	15
126	10
127	105
128	20
129	10
131	220
132	30
144	10
145	110
146	370
147	60
148	10
160	40
161	20
174	10
188	10
213	65
214	10
216	170
217	30
231	300
232	65
233	10
