Mass spectrum: FUMARIC ACID DIMETHYL ESTER; EI-MS
Name: TRANS-BUTENEDIOIC ACID DIMETHYL ESTER
Formula: C6H8O4
Exact mass: 144.04226
Instrument type: EI-MS
m/z	relative intensity
15	232
26	109
27	32
29	47
30	14
31	22
39	43
41	35
42	14
44	14
53	139
54	97
55	30
59	287
81	38
82	52
85	458
86	26
99	18
100	19
113	999
114	172
115	16
144	10
