Mass spectrum: TRIMETHOXYVINYLSILANE; EI-MS
Formula: C5H12O3Si
Exact mass: 148.05557
Instrument type: EI-MS
m/z	relative intensity
15	38
27	24
29	28
31	36
45	81
47	32
55	20
57	21
59	219
60	56
61	178
73	18
77	34
85	28
86	40
87	165
88	17
90	136
91	823
92	68
93	42
105	119
106	17
107	316
108	26
109	15
115	19
116	22
117	226
118	344
119	66
120	165
121	999
122	92
123	42
130	17
133	195
134	26
147	38
