Mass spectrum: 4-HYDROXY4-METHYLCYCLOHEXA-2,5-DIEN-1-ONE; EI-MS
Formula: C7H8O2
Exact mass: 124.05243
Instrument type: EI-MS
m/z	relative intensity
15	20
18	40
19	5
26	3
27	121
28	20
29	25
31	1
33	5
34	5
35	10
36	1
39	81
40	40
41	61
42	3
43	202
44	20
45	10
47	1
48	5
49	5
50	30
51	10
52	101
53	303
54	61
55	16
56	10
57	10
63	20
64	1
65	15
66	35
67	66
68	3
69	56
70	46
71	10
77	14
78	81
79	76
80	15
81	58
82	106
83	10
84	5
85	1
94	15
95	182
96	546
97	5
98	10
107	35
108	20
109	999
110	96
111	10
117	5
124	28
125	25
