Mass spectrum: 2-BUTOXYETHYL ACETATE; EI-MS
Name: N-BUTYLCELLOSOLVE ACETATE
Formula: C8H16O3
Exact mass: 160.10994
Instrument type: EI-MS
m/z	relative intensity
15	84
26	12
27	103
28	57
29	280
31	33
39	45
41	284
42	28
43	984
44	127
45	106
55	48
56	509
57	999
58	46
61	70
70	18
71	25
72	22
73	26
74	69
75	11
85	167
86	12
87	310
88	113
100	105
117	11
