Mass spectrum: M-HYDROXYBENZALDEHYDE; EI-MS
Formula: C7H6O2
Exact mass: 122.03678
Instrument type: EI-MS
m/z	relative intensity
26	14
27	23
29	104
37	49
38	111
39	363
40	51
49	12
50	80
51	55
53	75
55	39
61	42
62	75
63	150
64	65
65	458
66	118
73	11
74	36
75	19
76	15
92	18
93	474
94	101
121	866
122	999
123	75
