Mass spectrum: HEPTANAL O-2,3,4,5,6-PENTAFLUOROBENZYLOXIME; EI-MS
Formula: C14H16F5NO
Exact mass: 309.11521
Instrument type: EI-MS
m/z	relative intensity
41	212
42	36
43	165
44	16
45	4
46	10
51	9
52	4
53	14
54	23
55	76
56	25
57	28
58	28
59	4
60	5
67	12
68	15
69	39
70	10
71	13
72	11
75	10
79	6
80	6
81	15
82	35
83	18
84	6
86	10
93	18
95	19
96	6
97	15
98	10
99	24
100	14
111	5
112	10
117	23
119	18
128	45
129	5
131	12
137	6
143	8
149	8
150	12
155	9
161	38
162	8
163	5
167	23
168	10
169	6
176	5
177	24
178	11
179	7
181	999
182	72
189	5
190	6
194	9
195	30
196	10
197	14
198	16
202	14
207	65
208	8
219	9
222	36
239	300
240	29
252	12
281	8
