Mass spectrum: 1,2-DIACETOXYETHANE; EI-MS
Name: ETHYLENEGLYCOL DIACETATE
Formula: C6H10O4
Exact mass: 146.05791
Instrument type: EI-MS
m/z	relative intensity
15	44
42	19
43	999
44	29
73	52
74	17
86	123
87	36
103	23
116	48
