Mass spectrum: 18-METHYLNONADECANOIC ACID TRIMETHYLSILYLESTER; EI-MS
Name: TRIMETHYLSILYL 18-METHYLNONADECANOATE
Formula: C23H48O2Si
Exact mass: 384.34236
Instrument type: EI-MS
m/z	relative intensity
43	337
45	49
47	36
55	27
56	66
57	214
61	41
67	7
69	179
71	68
73	999
74	9
75	756
76	49
77	51
81	7
83	105
84	36
85	32
95	7
97	76
98	61
109	32
111	4
116	41
117	926
118	83
119	3
129	305
130	44
131	115
132	42
133	91
134	27
143	29
145	32
146	44
159	29
185	27
187	2
201	61
369	224
370	68
384	22
