Mass spectrum: BETA-HIMACHALENE; EI-MS
Formula: C15H24
Exact mass: 204.1878
Instrument type: EI-MS
m/z	relative intensity
26	5
27	60
29	77
40	1
41	290
42	20
43	60
50	1
51	26
52	12
53	77
54	1
55	196
56	62
57	25
63	1
64	10
65	60
66	11
67	5
68	10
69	125
70	25
71	1
75	8
76	8
77	161
78	4
79	137
80	25
81	65
82	7
83	46
84	10
89	10
90	1
91	305
92	133
93	350
94	6
95	35
96	8
97	10
102	1
103	35
104	20
105	355
106	12
107	168
108	52
109	60
110	1
115	50
116	20
117	680
118	3
119	999
120	136
121	446
122	11
123	10
127	10
128	27
129	2
130	13
131	46
132	23
133	32
134	420
135	127
136	15
141	1
142	6
143	10
144	5
145	3
146	12
147	202
148	115
149	2
157	5
159	10
161	150
162	2
175	6
187	6
189	75
190	1
202	5
203	8
204	530
205	9
206	8
