Mass spectrum: 2-PHENETHYLCHROMONE; EI-MS
Name: 2-PHENETHYL-4H-CHROMEN-4-ONE
Formula: C17H14O2
Exact mass: 250.09938
Instrument type: EI-MS
m/z	relative intensity
57	13
91	999
92	80
121	22
129	11
131	30
232	11
233	13
249	23
250	554
251	104
252	12
