Mass spectrum: P-CHLOROANILINE; EI-MS
Formula: C6H6ClN
Exact mass: 127.01888
Instrument type: EI-MS
m/z	relative intensity
37	25
38	45
39	96
41	56
42	14
45.5	19
50	34
51	3
52	56
61	30
62	51
63	11
64	65
65	282
66	39
73	5
74	22
75	35
90	27
91	6
92	183
93	14
99	60
100	8
101	28
102	26
126	19
127	999
128	88
129	272
130	28
