Mass spectrum: PARA-SEC-BUTYLPHENOL; EI-MS
Formula: C10H14O
Exact mass: 150.10447
Instrument type: EI-MS
m/z	relative intensity
38	16
39	112
40	15
41	7
43	15
50	15
51	41
53	2
55	45
63	15
65	51
66	2
77	129
78	20
85	28
91	8
92	11
93	22
94	15
103	8
107	88
120	13
121	999
122	8
150	131
