Mass spectrum: METHYL-TRANS-9-DODECENOATE; EI-MS
Formula: C13H24O2
Exact mass: 212.17763
Instrument type: EI-MS
m/z	relative intensity
41	999
42	184
43	477
44	11
45	86
53	122
54	142
55	86
56	150
57	164
59	261
67	26
68	195
69	500
70	102
71	13
74	590
75	97
81	190
82	14
83	285
84	229
85	102
87	11
95	136
96	262
97	238
98	17
110	109
111	95
138	123
163	6
180	103
212	73
