Mass spectrum: 4-HEPTANONE; EI-MS
Formula: C7H14O
Exact mass: 114.10447
Instrument type: EI-MS
m/z	relative intensity
15	17
26	15
27	258
28	16
29	42
39	132
40	12
41	258
42	68
43	999
44	39
55	23
57	13
58	65
71	825
72	37
99	15
114	144
115	11
