Mass spectrum: BETA-PICOLINE; EI-MS
Name: 3-METHYLPYRIDINE
Formula: C6H7N
Exact mass: 93.05785
Instrument type: EI-MS
m/z	relative intensity
26	20
27	30
28	35
31	10
37	36
38	82
39	283
40	124
41	28
45.5	11
50	33
51	54
52	27
53	23
54	25
61	23
62	35
63	74
64	35
65	235
66	393
67	98
78	35
91	18
92	300
93	999
94	71
