Mass spectrum: 2-BUTYL-3-METHYLCYCLOPENT-2-EN-1-ONE; EI-MS
Formula: C10H16O
Exact mass: 152.12012
Instrument type: EI-MS
m/z	relative intensity
26	80
27	940
28	190
29	330
30	40
31	30
32	30
37	30
38	70
39	870
40	190
41	999
42	110
43	360
44	30
45	30
51	250
52	190
53	520
54	210
55	310
56	70
57	40
58	30
61	30
62	50
63	100
64	50
65	210
66	150
67	550
68	90
69	70
70	50
71	60
74	30
75	30
76	30
77	250
78	80
79	320
80	90
81	270
82	220
83	50
84	30
85	30
87	30
89	30
90	30
91	110
92	40
93	70
94	40
95	220
96	50
97	40
98	30
99	110
100	30
103	30
104	20
105	40
106	30
107	40
108	30
109	110
110	510
111	70
112	20
119	30
121	30
122	20
123	110
124	40
135	30
137	140
138	30
139	30
151	30
152	80
153	10
