Mass spectrum: 2-IODO-1-PHENOXY-3-TRIMETHYLSILOXYPROPANE; EI-MS
Formula: C12H19IO2Si
Exact mass: 350.0199
Instrument type: EI-MS
m/z	relative intensity
40	151
43	34
45	87
47	37
51	66
59	94
65	39
73	999
74	93
75	207
77	203
79	50
91	36
94	42
101	76
107	283
108	27
116	234
117	25
127	60
129	28
133	103
151	177
152	23
189	47
207	30
234	27
243	201
350	39
