Mass spectrum: BENZYL BUTYL ETHER; EI-MS
Formula: C11H16O
Exact mass: 164.12012
Instrument type: EI-MS
m/z	relative intensity
27	56
29	64
39	72
41	80
43	17
50	12
51	35
57	19
63	19
65	112
77	45
78	16
79	78
89	20
90	14
91	999
92	593
93	35
105	15
107	70
108	60
