Mass spectrum: N-ACETYL-ASPARTIC ACID DIMETHYLESTER; EI-MS
Formula: C8H13NO5
Exact mass: 203.07937
Instrument type: EI-MS
m/z	relative intensity
15	165
27	20
28	76
29	1
31	12
33	18
41	24
42	6
43	568
44	13
55	23
59	5
60	135
70	192
74	29
86	2
88	73
100	10
101	12
102	999
103	38
113	42
144	615
145	3
160	21
172	27
203	12
