Mass spectrum: DIFLUORODIMESITYLSILANE; EI-MS
Formula: C18H22F2Si
Exact mass: 304.14588
Instrument type: EI-MS
m/z	relative intensity
40	120
51	25
52	11
53	24
55	11
56	13
57	682
58	31
63	40
65	28
77	64
78	24
79	28
91	118
92	14
93	16
102	14
103	49
104	34
105	45
113	29
115	53
116	15
117	71
118	39
119	999
120	319
121	27
145	14
154	11
181	39
182	34
183	15
184	11
215	11
217	699
218	445
219	525
220	298
221	124
222	57
223	11
274	164
275	33
276	112
277	22
278	21
