Mass spectrum: ISOBUTYL LEVULINATE; EI-MS
Formula: C9H16O3
Exact mass: 172.10994
Instrument type: EI-MS
m/z	relative intensity
15	40
26	15
27	137
29	132
31	12
39	90
41	222
42	59
43	874
44	17
55	67
56	167
57	350
58	24
71	96
72	18
73	31
74	168
75	19
98	31
99	999
100	63
101	90
117	113
130	33
157	12
