Mass spectrum: METHYL 5-KETO-5-PHENYLPENTANOATE; EI-MS
Formula: C12H14O3
Exact mass: 206.09429
Instrument type: EI-MS
m/z	relative intensity
31	25
32	90
39	17
41	15
42	19
43	11
45	12
50	2
51	88
55	44
59	36
74	12
75	15
76	22
77	379
78	38
91	15
105	999
106	79
120	147
121	15
132	12
133	34
146	83
147	103
148	14
174	40
175	121
176	16
206	104
207	17
