Mass spectrum: 2-ETHOXYETHANOL; EI-MS
Name: CELLOSOLVE
Formula: C4H10O2
Exact mass: 90.06808
Instrument type: EI-MS
m/z	relative intensity
18	30
27	102
28	34
29	383
31	999
32	27
33	11
41	39
43	100
44	25
45	280
59	439
60	17
61	14
72	97
73	16
90	5
