Mass spectrum: N-BUTYLANILINE; EI-MS
Formula: C10H15N
Exact mass: 149.12045
Instrument type: EI-MS
m/z	relative intensity
77	199
105	158
118	268
132	24
133	213
134	741
148	856
149	999
