Mass spectrum: 3,4,5-TRIS(TRIMETHYLSILOXY)BENZOIC ACIDTRIMETHYLSILYL ESTER; EI-MS
Formula: C19H38O5Si4
Exact mass: 458.17963
Instrument type: EI-MS
m/z	relative intensity
44	22
53	22
66	22
73	32
75	90
76	11
77	56
81	3
89	22
96	11
109	34
119	2
122	22
134	79
137	56
151	5
152	45
167	11
179	11
195	60
196	56
213	22
225	670
226	10
227	22
239	11
269	840
270	13
271	34
284	999
285	170
286	45
