Mass spectrum: GERANYL ACETONE; EI-MS
Name: 6,10-DIMETHYL-5,9-UNDECADIEN-2-ONE
Formula: C13H22O
Exact mass: 194.16707
Instrument type: EI-MS
m/z	relative intensity
15	16
27	51
29	28
39	69
41	353
42	20
43	999
44	21
51	12
53	55
55	36
58	19
65	14
67	60
68	38
69	395
70	21
71	15
77	17
79	20
81	30
82	15
83	30
91	17
93	41
95	15
107	55
108	17
109	31
111	12
121	22
123	11
125	56
136	60
151	65
194	11
