Mass spectrum: 5,8-DIMETHYLQUINOLINE; EI-MS
Formula: C11H11N
Exact mass: 157.08915
Instrument type: EI-MS
m/z	relative intensity
39	39
41	11
50	26
51	45
63	72
65	80
77	119
78	64
102	40
103	32
115	48
116	13
117	40
127	10
128	72
129	10
130	56
141	52
142	341
156	516
157	999
158	170
159	17
