Mass spectrum: N-METHYLPYRROLE; EI-MS
Formula: C5H7N
Exact mass: 81.05785
Instrument type: EI-MS
m/z	relative intensity
32	68
37	56
38	103
39	442
40	163
41	181
42	547
43	27
49	16
50	48
51	56
52	112
53	564
54	223
55	298
56	29
57	34
58	29
59	12
66	36
67	25
68	38
69	49
70	14
71	14
78	140
79	45
80	747
81	999
82	60
