Mass spectrum: P-HYDROXYBENZOIC ACID; EI-MS
Formula: C7H6O3
Exact mass: 138.03169
Instrument type: EI-MS
m/z	relative intensity
38	46
39	188
45	33
50	29
51	21
53	51
55	35
61	2
62	42
63	102
65	240
66	3
74	17
75	11
81	37
92	3
93	207
94	17
109	11
110	2
121	999
122	75
138	700
139	70
