Mass spectrum: (3S)-5-BROMO-3-(TERT-BUTYLDIMETHYLSILYLOXY)-1-PIVALOYLOXYPENTANE; EI-MS
Formula: C16H33BrO3Si
Exact mass: 380.13823
Instrument type: EI-MS
m/z	relative intensity
41	20
55	54
56	999
57	5
67	46
75	18
85	947
86	5
103	40
147	34
159	679
160	2
161	24
171	42
177	79
249	2
251	58
323	73
324	22
325	11
326	8
