Mass spectrum: 4-ETHYLQUINOLINE; EI-MS
Formula: C11H11N
Exact mass: 157.08915
Instrument type: EI-MS
m/z	relative intensity
27	22
28	11
29	18
39	16
41	10
50	10
51	10
63	72
65	40
77	104
89	32
102	32
103	24
115	53
116	28
128	80
129	48
141	40
142	128
156	274
157	999
158	167
159	14
