Mass spectrum: DIETHYL MALONATE; EI-MS
Name: MALONIC ACID DIETHYL ESTER
Formula: C7H12O4
Exact mass: 160.07356
Instrument type: EI-MS
m/z	relative intensity
14	46
15	91
19	18
26	75
27	371
28	82
29	999
30	36
31	594
40	72
41	114
42	357
43	698
44	136
45	487
46	95
55	36
60	136
61	59
68	74
69	308
70	65
73	23
86	93
87	69
88	159
105	36
114	32
115	487
116	26
133	291
134	14
