Mass spectrum: D-CAMPHOLIC ACID; EI-MS
Name: (D)-TRANS-1,2,2,3-TETRAMETHYLCYCLOPENTANECARBOXYLIC ACID
Formula: C10H18O2
Exact mass: 170.13068
Instrument type: EI-MS
m/z	relative intensity
42	26
43	117
45	70
53	37
55	159
56	64
57	28
58	19
59	105
67	48
68	21
69	737
70	94
71	23
73	19
74	50
77	11
79	13
81	32
82	18
83	68
84	999
85	79
87	167
95	22
96	97
97	91
99	23
100	29
101	12
109	74
110	15
113	33
114	40
115	11
127	20
152	14
170	47
