Mass spectrum: ISOVALERALDEHYDE DIBUTYL ACETAL; EI-MS
Formula: C13H28O2
Exact mass: 216.20893
Instrument type: EI-MS
m/z	relative intensity
27	102
29	283
31	41
39	63
41	345
42	32
43	136
44	30
45	82
47	13
53	10
55	53
56	74
57	999
58	44
69	288
70	14
71	116
85	29
87	269
88	12
103	188
127	14
142	11
143	334
144	32
159	179
160	15
