Mass spectrum: 3-ISOQUINOLONE; EI-MS
Formula: C9H7NO
Exact mass: 145.05276
Instrument type: EI-MS
m/z	relative intensity
28	41
39	80
50	34
51	86
52	79
58	35
59	21
62	29
63	74
65	47
77	52
78	140
89	67
90	52
91	84
102	21
103	127
104	999
105	100
117	69
118	155
146	99
147	375
148	38
