Mass spectrum: DICHLOROMETHANE; EI-MS
Formula: CH2Cl2
Exact mass: 83.95336
Instrument type: EI-MS
m/z	relative intensity
42	30
47	133
48	74
49	999
50	34
51	309
83	18
84	579
85	19
86	366
88	59
