Mass spectrum: 2-PYRIDYL M-TOLYL ETHER; EI-MS
Formula: C12H11NO
Exact mass: 185.08406
Instrument type: EI-MS
m/z	relative intensity
50	60
51	280
52	120
53	50
63	100
65	170
77	130
78	320
79	60
89	80
91	150
115	140
117	50
129	130
130	80
131	60
142	80
156	240
157	570
158	80
169	80
170	70
183	70
184	999
185	830
186	140
