Mass spectrum: 2-ISOPROPYL-5-METHYLPHENOL; EI-MS
Formula: C10H14O
Exact mass: 150.10447
Instrument type: EI-MS
m/z	relative intensity
27	20
39	34
41	20
51	2
53	18
63	16
65	24
66	2
66.5	18
68	18
71	20
77	4
78	18
79	29
83	20
91	9
92	15
104	21
106	34
115	8
116	26
117	79
134	70
135	999
136	100
150	321
151	29
