Mass spectrum: ETHYL ISOPROPYL ETHER; EI-MS
Formula: C5H12O
Exact mass: 88.08882
Instrument type: EI-MS
m/z	relative intensity
14	29
15	95
19	18
24	2
27	161
28	25
29	145
31	5
39	52
41	93
42	39
43	31
44	38
45	999
46	20
59	6
73	278
74	31
88	20
