Mass spectrum: 1-VALERYL-5-FLUOROURACIL; EI-MS
Formula: C9H11FN2O3
Exact mass: 214.07537
Instrument type: EI-MS
m/z	relative intensity
27	140
28	110
29	260
31	1
39	120
40	30
41	290
42	1
43	50
53	50
54	30
55	2
56	80
57	640
58	120
59	0
60	70
83	40
84	110
85	999
86	120
87	140
88	70
100	0
113	40
114	80
130	170
131	2
142	10
144	20
171	10
172	0
185	40
214	230
215	40
