Mass spectrum: 10,11-DIMETHYLSPIRO(5.6)DODEC-10-EN-7-ONE; EI-MS
Formula: C14H22O
Exact mass: 206.16707
Instrument type: EI-MS
m/z	relative intensity
81	84
82	97
108	118
109	123
110	550
111	107
123	84
124	210
163	118
188	88
206	999
207	147
