Mass spectrum: PARA NITRO PHENOL; EI-MS
Name: PARA HYDROXY NITROBENZENE
Formula: C6H5NO3
Exact mass: 139.02694
Instrument type: EI-MS
m/z	relative intensity
26	53
27	112
28	35
29	32
30	102
37	67
38	167
39	861
40	29
43	23
44	25
50	120
51	98
52	73
53	230
54	23
55	35
61	56
62	120
63	266
64	113
65	999
66	79
74	55
75	58
80	18
81	280
82	19
92	25
93	177
94	18
95	39
109	642
110	41
123	92
139	407
140	57
