Mass spectrum: PARA-ETHYLTOLUENE; EI-MS
Formula: C9H12
Exact mass: 120.0939
Instrument type: EI-MS
m/z	relative intensity
27	33
39	61
41	22
50	13
51	33
53	13
63	31
65	53
77	133
78	44
79	163
80	11
89	18
91	113
92	20
102	11
103	88
104	27
105	999
106	86
115	23
117	23
119	17
120	235
121	23
