Mass spectrum: 1,1-DIETHOXY ETHANE; EI-MS
Formula: C6H14O2
Exact mass: 118.09938
Instrument type: EI-MS
m/z	relative intensity
15	57
19	35
27	116
28	39
29	220
31	41
43	167
44	45
45	999
46	20
47	175
61	36
73	481
74	23
75	48
103	130
