Mass spectrum: PROPIONITRILE; EI-MS
Formula: C3H5N
Exact mass: 55.0422
Instrument type: EI-MS
m/z	relative intensity
12	15
13	13
14	21
15	8
25	122
26	208
27	185
28	999
29	22
37	15
38	22
39	2
40	41
50	18
51	83
52	11
53	75
54	627
55	103
