Mass spectrum: TETRABUTYLAMMONIUM CHLORIDE; EI-MS
Name: N,N,N-TRIBUTYL-1-BUTANAMINIUM CHLORIDE
Formula: C16H36ClN
Exact mass: 277.25363
Instrument type: EI-MS
m/z	relative intensity
35	7
36	36
41	164
44	112
57	90
70	23
84	79
86	34
98	98
100	138
126	16
128	21
140	146
142	999
143	100
184	44
185	75
