Mass spectrum: ETHYL 3-METHYLSULFONYLBENZOATE; EI-MS
Formula: C10H12O4S
Exact mass: 228.04563
Instrument type: EI-MS
m/z	relative intensity
26	65
27	387
29	534
30	5
31	28
38	30
39	122
41	2
42	13
43	80
44	116
45	13
46	10
47	30
48	33
49	1
50	551
51	168
52	38
53	6
55	28
62	27
63	170
64	13
65	522
66	39
69	38
70	4
73	17
74	184
75	400
76	999
77	273
78	79
79	163
80	3
81	70
82	14
84	20
85	1
89	28
90	30
91	58
92	11
93	97
94	14
95	41
96	4
97	27
99	10
103	148
104	21
105	85
106	28
107	48
108	4
109	74
110	29
111	48
112	1
113	18
119	18
120	29
121	40
122	43
123	35
124	32
125	1
131	14
135	17
137	27
138	35
139	87
140	16
141	28
148	6
149	364
150	38
151	17
152	3
153	19
155	114
156	227
157	3
158	15
169	65
183	853
184	28
185	160
186	27
197	27
200	15
201	48
202	12
213	18
228	13
229	22
