Mass spectrum: MENTHOFURAN; EI-MS
Name: 4,5,6,7-TETRAHYDRO-3,6-DIMETHYLBENZOFURAN
Formula: C10H14O
Exact mass: 150.10447
Instrument type: EI-MS
m/z	relative intensity
27	54
29	26
39	91
40	12
41	58
43	15
51	42
52	17
53	37
55	14
63	16
65	39
66	14
77	81
78	21
79	156
80	30
91	60
93	16
95	15
105	24
107	14
108	999
109	89
121	18
135	15
149	11
150	291
151	34
