Mass spectrum: 2-(3-DIMETHYLAMINOPROPIONYL)-5,7-DIMETHYL-1,2,3,4-TETRAHYDROPYRIMIDO(1,6-A)INDOLE; EI-MS
Formula: C18H25N3O
Exact mass: 299.19976
Instrument type: EI-MS
m/z	relative intensity
58	999
59	40
69	45
77	1
91	12
98	32
115	35
128	3
129	40
130	25
143	29
144	8
157	51
158	194
170	69
171	70
172	119
198	40
199	630
200	10
241	99
298	10
299	450
