Mass spectrum: BENZOIC ACID; EI-MS
Formula: C7H6O2
Exact mass: 122.03678
Instrument type: EI-MS
m/z	relative intensity
17	56
18	277
28	26
37	21
38	43
38.5	19
39	46
45	2
47	15
50	137
51	254
52	4
52.5	21
65	19
66	13
73	1
74	52
76	45
77	624
78	6
94	22
105	999
106	76
122	88
123	71
