Mass spectrum: PARA TOLUNITRILE; EI-MS
Name: 1-METHYL-4-CYANOBENZENE
Formula: C8H7N
Exact mass: 117.05785
Instrument type: EI-MS
m/z	relative intensity
27	29
37	20
38	32
39	106
41	18
43	15
50	53
51	59
52	15
55	11
57	12
61	26
62	54
63	137
64	60
65	32
74	13
75	32
76	24
77	13
86	11
87	17
88	28
89	343
90	610
91	79
114	13
115	18
116	712
117	999
118	89
