Mass spectrum: N-DODECYL-3-METHYL-2-PYRROLIDONE; EI-MS
Formula: C17H33NO
Exact mass: 267.25621
Instrument type: EI-MS
m/z	relative intensity
26	4
27	42
28	70
29	11
30	160
31	4
32	6
39	3
40	8
41	260
42	160
43	17
44	44
45	8
53	12
54	1
55	214
56	128
57	74
58	1
67	16
68	12
69	42
70	3
71	14
72	6
74	8
81	1
82	24
83	20
84	520
85	3
86	22
87	22
96	7
97	1
98	43
99	15
100	118
101	1
110	6
111	6
112	999
113	90
114	70
115	6
124	4
125	0
126	206
127	78
128	14
138	1
139	2
140	216
141	88
142	2
154	98
155	40
156	6
168	6
169	18
170	6
182	44
183	1
184	6
185	4
196	52
197	1
198	4
210	38
211	14
212	2
213	2
224	30
225	24
226	0
238	28
239	6
240	2
241	1
242	2
250	3
252	14
253	0
266	18
267	490
268	90
269	10
