Mass spectrum: ALPHA-BROMOPROPIONIC ACID ETHYL ESTER; EI-MS
Name: ETHYL 2-BROMOPROPIONATE
Formula: C5H9BrO2
Exact mass: 179.97859
Instrument type: EI-MS
m/z	relative intensity
26	11
27	254
28	142
29	999
30	21
31	13
41	52
45	57
55	25
56	40
57	131
73	12
106	15
107	90
109	83
110	26
135	12
137	12
180	7
182	7
