Mass spectrum: HEPTANAL DIMETHYL ACETAL; EI-MS
Formula: C9H20O2
Exact mass: 160.14633
Instrument type: EI-MS
m/z	relative intensity
15	18
27	40
29	53
31	37
39	30
41	120
42	14
43	56
45	108
47	74
55	149
56	12
57	11
58	52
59	11
69	19
71	174
75	999
76	32
85	12
97	66
128	12
129	117
