Mass spectrum: 1-ISOBUTYL-1-METHYLHYDRAZINE; EI-MS
Formula: C5H14N2
Exact mass: 102.1157
Instrument type: EI-MS
m/z	relative intensity
27	41
29	62
30	98
31	4
39	37
40	25
41	58
42	20
43	61
44	55
45	73
46	2
57	22
59	999
60	29
70	1
71	25
102	114
103	7
