Mass spectrum: 3-BENZOYL-5-FLUOROURACIL; EI-MS
Formula: C11H7FN2O3
Exact mass: 234.04407
Instrument type: EI-MS
m/z	relative intensity
50	50
51	130
58	30
60	0
70	20
75	30
76	40
77	4
78	60
87	20
105	999
106	1
130	30
164	80
206	180
207	0
234	250
235	50
