Mass spectrum: 2-OXO-4-PHENYL-1,2-DIHYDROQUINOLIN-3-YLOXYACETIC ACID; EI-MS
Formula: C17H13NO4
Exact mass: 295.08446
Instrument type: EI-MS
m/z	relative intensity
39	13
44	9
50	8
51	18
52	6
62	8
63	22
64	6
65	6
74	7
75	17
76	37
77	62
78	8
81	10
82	19
86	6
87	9
88	19
89	27
90	19
91	12
95	20
96	7
100	6
101	28
102	19
103	8
104	8
109	6
110	10
113	8
114	8
115	14
116	12
124	67
125	17
126	19
127	22
128	13
139	20
140	13
150	13
151	44
152	88
153	41
154	12
163	39
164	44
165	95
166	22
174	6
175	10
176	19
177	31
178	46
179	80
180	133
181	34
188	5
189	10
190	86
191	58
192	22
193	33
194	22
201	12
202	85
203	27
204	53
205	16
206	15
207	27
208	205
209	37
215	14
216	6
218	8
219	25
220	325
221	92
222	76
223	17
232	83
233	157
234	44
235	23
236	143
237	90
238	18
248	61
249	57
250	999
251	272
252	37
266	6
277	62
278	15
294	18
295	260
296	54
297	8
