Mass spectrum: ETHYL BUTYRATE; EI-MS
Formula: C6H12O2
Exact mass: 116.08373
Instrument type: EI-MS
m/z	relative intensity
14	11
15	52
26	39
27	364
28	80
29	629
30	16
31	21
38	11
39	108
40	19
41	256
42	105
43	905
44	32
45	192
55	36
60	224
61	100
70	90
71	999
72	49
73	178
88	570
89	153
101	72
116	80
