Mass spectrum: BENZYL PENTANOATE; EI-MS
Name: BENZYL VALERATE
Formula: C12H16O2
Exact mass: 192.11503
Instrument type: EI-MS
m/z	relative intensity
27	57
29	66
39	112
41	148
42	31
43	62
50	16
51	62
52	15
55	15
57	271
58	12
59	32
63	32
64	10
65	129
69	12
77	85
78	23
79	70
85	207
86	10
89	43
90	105
91	999
92	120
105	27
107	55
108	580
109	48
192	146
193	18
