Mass spectrum: ALLYLHYDRAZONE ACETONE; EI-MS
Name: ACETONE ALLYLHYDRAZONE
Formula: C6H12N2
Exact mass: 112.10005
Instrument type: EI-MS
m/z	relative intensity
27	227
28	600
29	200
30	53
31	53
39	360
40	87
41	51
42	460
43	120
44	87
54	11
55	134
56	999
58	60
57	11
68	67
69	80
70	134
71	87
72	67
80	17
81	15
82	2
83	374
84	67
85	307
96	3
97	134
111	107
112	800
113	93
