Mass spectrum: BUTYLBENZENE; EI-MS
Formula: C10H14
Exact mass: 134.10955
Instrument type: EI-MS
m/z	relative intensity
27	74
29	26
39	83
41	45
43	17
50	19
51	69
52	14
63	33
65	123
77	74
78	71
79	28
89	18
90	11
91	999
92	557
93	41
103	25
104	20
105	88
115	13
134	252
135	23
