Mass spectrum: CINNAMIC ACID PENTYL ESTER; EI-MS
Formula: C14H18O2
Exact mass: 218.13068
Instrument type: EI-MS
m/z	relative intensity
27	198
29	162
41	173
43	186
51	156
55	137
70	355
71	31
76	38
77	325
102	110
103	411
104	86
107	12
120	19
131	999
132	105
133	9
148	570
149	292
218	62
219	10
