Mass spectrum: BUTYRIC ACID METHYL ESTER; EI-MS
Formula: C5H10O2
Exact mass: 102.06808
Instrument type: EI-MS
m/z	relative intensity
15	59
27	75
28	14
29	37
31	20
33	14
41	159
42	60
43	685
44	29
45	18
55	67
59	185
60	10
69	16
70	16
71	732
72	34
74	999
75	40
87	265
88	17
101	14
102	34
