Mass spectrum: 4-METHYL-2-PHENYLPURIMIDINE; EI-MS
Formula: C11H10N2
Exact mass: 170.0844
Instrument type: EI-MS
m/z	relative intensity
39	190
51	140
52	60
67	13
76	190
77	170
103	680
104	2
129	140
155	250
169	140
170	999
171	180
