Mass spectrum: 2,3-EPOXYPROPYL METHACRYLATE; EI-MS
Formula: C7H10O3
Exact mass: 142.06299
Instrument type: EI-MS
m/z	relative intensity
43	38
44	38
45	16
50	2
55	16
56	86
68	38
69	999
70	59
81	16
85	38
86	2
91	16
97	32
129	32
139	3
141	27
