Mass spectrum: 2-AMINO-1-ETHANOL; EI-MS
Formula: C2H7NO
Exact mass: 61.05276
Instrument type: EI-MS
m/z	relative intensity
27	23
28	95
29	35
30	999
31	49
41	13
42	32
43	12
61	9
