Mass spectrum: ORTHO XYLENE; EI-MS
Formula: C8H10
Exact mass: 106.07825
Instrument type: EI-MS
m/z	relative intensity
27	51
38	17
39	128
41	14
50	49
51	110
52	32
53	23
62	19
63	60
65	85
77	125
78	68
79	76
89	18
91	999
92	70
103	46
104	18
105	154
106	335
107	26
