Mass spectrum: 6-METHYLISOFLAVONE; EI-MS
Name: 6-METHYL-3-PHENYL-4H-CHROMEN-4-ONE
Formula: C16H12O2
Exact mass: 236.08373
Instrument type: EI-MS
m/z	relative intensity
32	21
39	40
50	30
51	7
52	52
62	17
63	58
69	2
74	17
75	23
76	63
77	9
78	165
79	11
89	63
90	2
91	11
102	81
103	15
104	2
105	119
106	140
117	31
117.5	1
118	81
133	16
134	407
135	4
149	37
152	12
165	31
178	4
179	21
207	15
208	12
234	1
235	999
236	963
237	185
238	15
