Mass spectrum: ISOPENTYL 2-FUROATE; EI-MS
Formula: C10H14O3
Exact mass: 182.09429
Instrument type: EI-MS
m/z	relative intensity
29	68
39	124
41	132
42	312
43	416
55	684
56	32
57	21
68	76
69	128
70	999
71	117
84	22
95	684
96	95
112	442
139	20
182	10
