Mass spectrum: DECYL METHYL ETHER; EI-MS
Formula: C11H24O
Exact mass: 172.18272
Instrument type: EI-MS
m/z	relative intensity
15	15
27	83
28	16
29	150
33	13
39	68
41	299
42	133
43	258
45	999
46	18
53	18
54	25
55	288
56	295
57	130
58	16
67	25
68	130
69	248
70	338
71	70
82	116
83	272
84	181
85	27
96	17
97	123
98	58
111	60
112	121
140	110
141	11
