Mass spectrum: BETA-PHENYLPROPIONIC ACID TRIMETHYLSILYL ESTER; EI-MS
Formula: C12H18O2Si
Exact mass: 222.10761
Instrument type: EI-MS
m/z	relative intensity
44	165
45	609
47	421
51	2
65	180
73	503
75	999
77	32
78	172
85	157
91	315
104	70
105	172
207	203
