Mass spectrum: DOCOSANE; EI-MS
Formula: C22H46
Exact mass: 310.35995
Instrument type: EI-MS
m/z	relative intensity
27	63
29	193
39	45
41	362
42	100
43	884
44	20
53	14
54	19
55	265
56	142
57	999
58	44
67	20
68	20
69	124
70	110
71	581
72	25
82	14
83	82
84	57
85	357
86	17
97	56
98	28
99	99
111	17
112	20
113	60
126	15
127	37
140	11
141	22
154	11
155	17
169	12
183	11
