Mass spectrum: 2-BROMOMETHYL-1,3-BUTADIENE; EI-MS
Formula: C5H7Br
Exact mass: 145.97311
Instrument type: EI-MS
m/z	relative intensity
41	506
42	18
43	11
49	36
50	28
51	36
52	28
53	34
62	10
63	17
65	125
66	33
67	999
68	58
69	27
75	11
84	22
86	13
146	205
147	20
148	206
149	13
