Mass spectrum: TRANS-ROSE OXIDE; EI-MS
Name: 4-METHYL-TRANS-2-(2-METHYL-1-PROPENYL)PERHYDROPYRAN
Formula: C10H18O
Exact mass: 154.13577
Instrument type: EI-MS
m/z	relative intensity
15	11
27	137
29	152
31	12
32	11
39	189
40	24
41	346
42	140
43	73
51	21
53	70
54	23
55	292
56	83
57	18
65	19
66	14
67	118
68	19
69	604
70	33
71	10
77	24
79	24
81	29
82	46
83	277
84	132
85	124
93	11
97	31
99	12
109	14
112	21
139	999
140	92
153	14
154	102
155	10
