Mass spectrum: P-CHLOROTOLUENE; EI-MS
Name: 1-CHLORO-4-METHYLBENZENE
Formula: C7H7Cl
Exact mass: 126.02363
Instrument type: EI-MS
m/z	relative intensity
43	19
44	15
45	71
50	33
51	31
61	14
62	31
63	90
64	19
65	75
73	23
74	13
75	22
89	74
90	27
91	999
92	77
99	22
125	162
126	392
127	81
128	120
129	10
