Mass spectrum: CINNAMIC ALDEHYDE; EI-MS
Name: 3-PHENYL-2-PROPENAL
Formula: C9H8O
Exact mass: 132.05751
Instrument type: EI-MS
m/z	relative intensity
40	26
41	74
51	112
52	27
53	63
54	15
55	13
61	1
63	24
64	53
65	11
74	4
75	34
76	42
77	256
78	20
79	13
91	13
102	74
103	39
104	195
105	27
115	10
131	999
132	635
133	74
