Mass spectrum: 3-ETHOXY-6-(5-METHYL-1-TRIMETHYLSILOXY-4-HEXENYL)-2-CYCLOHEXEN-1-ONE; EI-MS
Formula: C18H32O3Si
Exact mass: 324.21207
Instrument type: EI-MS
m/z	relative intensity
17	73
18	904
28	999
29	1
32	291
40	23
41	87
43	11
55	36
56	41
57	15
58	3
67	31
68	37
69	413
70	3
73	81
74	13
75	234
76	1
79	29
81	25
82	21
83	3
84	86
93	27
94	59
95	18
96	47
97	14
99	10
101	1
107	10
109	19
110	20
111	7
112	223
113	12
117	23
123	3
124	32
125	19
129	32
137	3
138	113
139	68
140	909
141	8
143	31
151	42
152	28
153	6
155	20
156	10
164	10
165	3
166	422
167	69
168	22
169	14
170	31
171	13
177	30
178	2
179	72
183	32
184	62
185	8
191	75
192	16
195	29
197	12
198	17
205	14
211	64
212	11
213	63
214	15
219	42
225	1
227	29
228	11
234	321
235	6
239	54
240	20
241	901
242	21
243	50
252	12
255	195
256	4
281	23
309	180
310	46
311	1
324	178
325	45
