Mass spectrum: TRICHLOROETHYLENE; EI-MS
Formula: C2HCl3
Exact mass: 129.91438
Instrument type: EI-MS
m/z	relative intensity
47	55
48	19
49	19
59	34
60	280
61	20
62	90
65	24
66	28
82	13
83	11
94	66
95	999
96	64
97	660
98	21
99	104
130	988
131	26
132	981
133	22
134	322
136	34
