Mass spectrum: TERT-BUTYLBROMIDE; EI-MS
Name: 2-METHYL-2-BROMOPROPANE
Formula: C4H9Br
Exact mass: 135.98876
Instrument type: EI-MS
m/z	relative intensity
15	19
26	26
27	136
28	106
29	249
36	67
37	26
38	61
39	339
40	66
41	999
42	43
50	40
51	35
53	40
54	17
55	149
56	371
57	651
58	29
136	17
138	17
