Mass spectrum: 6-HYDROXY-2-CARBOXYLNAPHTHALENE; EI-MS
Name: 6-HYDROXY-2-NAPHTHOIC ACID
Formula: C11H8O3
Exact mass: 188.04734
Instrument type: EI-MS
m/z	relative intensity
62	16
63	31
71	33
80	5
85	16
89	19
113	17
114	4
115	108
142	28
143	295
144	3
159	17
171	516
172	59
188	999
189	117
