Mass spectrum: 1,2-DICHLOROPENTANE; EI-MS
Formula: C5H10Cl2
Exact mass: 140.01596
Instrument type: EI-MS
m/z	relative intensity
25	2
26	46
27	358
28	33
29	242
30	5
35	9
36	3
37	19
38	44
39	282
40	6
41	494
42	317
43	310
44	3
47	3
48	4
49	88
50	0
51	58
52	9
53	99
54	3
55	999
56	45
57	4
60	0
61	49
62	121
63	115
64	0
65	39
66	7
67	40
68	42
69	296
70	23
71	2
73	1
74	2
75	66
76	58
77	3
78	20
79	4
81	1
83	1
85	4
87	3
88	1
89	2
90	36
91	254
92	22
93	1
94	4
95	2
96	5
97	1
98	3
99	6
103	4
104	6
105	5
106	19
107	2
