Mass spectrum: 9-ANTHRACENECARBONITRILE; EI-MS
Name: 9-CYANOANTHRACENE
Formula: C15H9N
Exact mass: 203.0735
Instrument type: EI-MS
m/z	relative intensity
39	22
50	27
51	23
61	11
62	26
63	37
74	45
75	53
76	18
86	26
87	53
88	68
98	29
99	26
100	16
101	47
102	13
110	12
111	18
122	11
123	14
124	11
126	17
149	18
150	49
151	24
152	16
174	41
175	68
176	87
177	52
201	76
202	72
203	999
204	170
205	13
