Mass spectrum: 2-ETHYLHEXANAL ETHYLENE GLYCOL ACETAL; EI-MS
Formula: C10H20O2
Exact mass: 172.14633
Instrument type: EI-MS
m/z	relative intensity
27	37
29	37
39	17
41	59
43	26
45	117
55	29
57	20
70	11
73	999
74	36
