Mass spectrum: N-BUTANE; EI-MS
Formula: C4H10
Exact mass: 58.07825
Instrument type: EI-MS
m/z	relative intensity
14	10
15	62
26	74
27	374
28	304
29	395
37	17
38	28
39	174
40	25
41	315
42	140
43	999
44	34
50	20
51	15
55	12
57	32
58	168
59	8
