Mass spectrum: 1-ACETYL-3-(4-PYRIDYL)-2-PYRAZOLINE; EI-MS
Formula: C10H11N3O
Exact mass: 189.09021
Instrument type: EI-MS
m/z	relative intensity
77	40
91	43
105	21
117	2
118	43
119	23
146	492
147	999
148	65
189	207
