Mass spectrum: DIMETHYLHYDRAZONE BUTYRALDEHYDE; EI-MS
Name: BUTYRALDEHYDE DIMETHYLHYDRAZONE
Formula: C6H14N2
Exact mass: 114.1157
Instrument type: EI-MS
m/z	relative intensity
28	125
29	75
30	67
39	7
40	23
41	154
42	458
43	46
44	999
45	375
46	19
53	1
54	9
55	38
56	56
57	4
58	123
59	94
68	15
69	1
70	46
71	87
72	58
73	1
83	12
85	791
86	162
99	11
100	8
113	28
114	582
115	52
