Mass spectrum: 7-METHOXY(CIS)ISOFLAVAN-4-OL ACETATE; EI-MS
Name: 7-METHOXY-CIS-3-PHENYLCHROMAN-4-YL ACETATE
Formula: C18H18O4
Exact mass: 298.12051
Instrument type: EI-MS
m/z	relative intensity
44	147
45	50
60	230
104	9
105	10
122	30
125	20
131	1
136	10
152	100
160	30
161	60
162	67
194	10
195	10
207	10
208	100
209	20
210	33
223	10
224	20
226	13
237	270
238	999
239	160
240	20
298	30
