Mass spectrum: META NITRO ANILINE; EI-MS
Formula: C6H6N2O2
Exact mass: 138.04293
Instrument type: EI-MS
m/z	relative intensity
27	21
28	53
30	12
37	18
38	46
39	235
40	19
41	60
50	21
51	25
52	68
53	39
54	18
62	32
63	84
64	75
65	999
66	106
80	98
91	37
92	936
93	79
108	102
138	846
139	72
