Mass spectrum: 4-HYDROXY-3-METHOXYBENZOIC ACID; EI-MS
Name: VANILLIC ACID
Formula: C8H8O4
Exact mass: 168.04226
Instrument type: EI-MS
m/z	relative intensity
39	16
41	18
45	11
50	16
51	37
52	38
53	24
55	14
63	20
65	21
69	15
77	15
79	36
80	16
81	18
92	10
97	174
107	17
108	30
119	12
121	12
123	35
125	136
137	26
151	138
152	14
153	462
154	48
162	10
168	999
169	143
170	16
