Mass spectrum: METHYL 2-BUTYLHEXANOATE; EI-MS
Formula: C11H22O2
Exact mass: 186.16198
Instrument type: EI-MS
m/z	relative intensity
37	180
39	90
41	430
43	430
45	70
53	70
55	560
56	60
57	280
59	200
69	230
70	50
71	210
74	80
83	60
85	110
87	999
88	180
96	50
97	110
98	90
100	60
101	520
102	50
129	120
130	880
131	210
132	90
133	50
143	300
155	170
156	50
157	120
186	50
