Mass spectrum: (16R)-ENT-15-OXOKAURAN-18-OIC ACID METHYLESTER; EI-MS
Formula: C21H32O3
Exact mass: 332.23514
Instrument type: EI-MS
m/z	relative intensity
40	40
41	999
42	105
43	52
45	70
53	272
54	70
55	84
56	138
57	285
58	55
59	17
65	130
66	55
67	460
68	10
69	280
70	55
71	115
73	9
77	300
78	70
79	580
80	13
81	510
82	90
83	114
84	8
85	95
91	455
92	260
93	49
94	220
95	270
96	62
97	9
101	135
104	55
105	300
106	16
107	365
108	105
109	280
110	6
115	75
117	95
119	170
120	9
121	575
122	200
123	330
129	6
131	115
132	18
133	125
134	2
135	10
145	100
147	95
149	16
150	55
159	70
160	15
161	7
169	65
170	20
173	70
181	6
189	55
190	20
199	90
200	1
214	110
215	85
229	160
230	5
239	95
240	10
257	125
258	5
259	30
272	195
273	115
274	35
275	80
289	28
299	55
300	3
314	75
317	30
332	190
333	40
