Mass spectrum: PARA-ANISALDEHYDE; EI-MS
Name: PARA-METHOXYBENZALDEHYDE
Formula: C8H8O2
Exact mass: 136.05243
Instrument type: EI-MS
m/z	relative intensity
27	11
28	16
29	14
37	11
38	34
39	81
50	56
51	68
53	14
62	23
63	70
64	77
65	79
74	25
75	18
76	24
77	339
78	38
79	21
92	148
93	18
105	12
107	181
108	20
135	999
136	711
137	62
