Mass spectrum: CIS-3-HEXENYL 3-PHENYLPROPENOATE; EI-MS
Name: CIS-3-HEXENYL CINNAMATE
Formula: C15H18O2
Exact mass: 230.13068
Instrument type: EI-MS
m/z	relative intensity
27	81
29	21
39	106
41	205
42	17
50	28
51	123
52	18
53	50
55	74
63	18
65	12
67	486
68	22
74	12
75	17
76	28
77	335
78	22
79	13
81	32
82	999
83	60
92	11
102	92
103	458
104	35
131	904
132	84
147	68
148	55
149	113
