Mass spectrum: TRIMEPRAZINE; EI-MS
Name: 10-(3-(DIMETHYLAMINO)-2-METHYLPROPYL)PHENOTHIAZINE
Formula: C18H22N2S
Exact mass: 298.15037
Instrument type: EI-MS
m/z	relative intensity
57	14
58	999
59	43
71	11
84	32
86	18
99	28
100	8
152	12
154	18
166	12
167	20
179	13
180	57
197	11
198	70
199	56
200	12
212	59
213	20
223	15
224	13
238	44
239	55
240	21
252	44
253	36
298	184
299	38
300	13
