Mass spectrum: ETHYL 3-ETHOXYPROPIONATE; EI-MS
Formula: C7H14O3
Exact mass: 146.09429
Instrument type: EI-MS
m/z	relative intensity
15	49
19	20
26	65
27	416
28	177
29	841
30	42
31	637
41	36
42	111
43	363
44	124
45	348
47	36
55	107
56	42
57	62
58	16
59	999
60	100
61	22
71	567
72	184
73	244
74	203
75	106
89	193
100	11
101	397
102	310
103	26
117	391
118	23
