Mass spectrum: 1,3-DIPHENYLACETONE; EI-MS
Formula: C15H14O
Exact mass: 210.10447
Instrument type: EI-MS
m/z	relative intensity
14	24
15	40
17	14
18	31
26	31
27	94
28	72
29	93
30	23
31	386
32	15
39	54
41	19
42	15
43	41
45	168
46	75
50	14
51	31
63	37
64	13
65	156
66	12
77	28
89	49
90	36
91	999
92	88
105	30
106	13
118	62
119	94
210	96
211	18
