Mass spectrum: PHENOL; EI-MS
Formula: C6H6O
Exact mass: 94.04186
Instrument type: EI-MS
m/z	relative intensity
27	26
37	33
38	72
39	249
40	142
47	21
50	53
51	50
53	27
55	84
61	19
62	29
63	60
64	21
65	262
66	377
67	21
68	10
74	17
93	16
94	999
95	61
