Mass spectrum: 1-BUTANOL; EI-MS
Name: BUTYL ALCOHOL
Formula: C4H10O
Exact mass: 74.07316
Instrument type: EI-MS
m/z	relative intensity
15	42
19	35
26	44
27	40
28	138
29	180
30	12
31	84
32	18
33	82
37	13
38	2
39	154
40	49
41	706
42	32
43	552
44	23
45	65
50	1
51	10
53	13
55	144
56	999
57	58
73	18
74	13
