Mass spectrum: CYCLOPROPYL METHYL KETONE; EI-MS
Formula: C5H8O
Exact mass: 84.05751
Instrument type: EI-MS
m/z	relative intensity
37	16
38	37
39	258
40	11
41	552
42	78
43	999
44	17
51	11
53	16
55	24
69	778
70	39
83	38
84	273
85	17
