Mass spectrum: 3-METHOXYPROPIONITRILE; EI-MS
Name: 1-METHOXY-2-CYANOETHANE
Formula: C4H7NO
Exact mass: 85.05276
Instrument type: EI-MS
m/z	relative intensity
15	166
26	43
27	69
28	70
29	172
31	50
39	24
40	27
41	59
43	70
45	999
46	26
51	24
52	35
53	21
54	77
55	61
56	34
57	60
69	21
71	28
83	15
85	18
