Mass spectrum: BUTYRIC ACID PROPYL ESTER; EI-MS
Formula: C7H14O2
Exact mass: 130.09938
Instrument type: EI-MS
m/z	relative intensity
27	34
29	17
31	33
41	93
42	147
43	667
45	23
55	9
57	14
59	63
60	138
61	107
70	12
71	999
72	47
73	95
87	11
88	54
89	676
90	30
100	12
101	60
102	54
