Mass spectrum: 1-ETHYL-1-METHYLHEPTYL ACETATE; EI-MS
Name: ETHYL HEXYL METHYL CARBINYL ACETATE
Formula: C12H24O2
Exact mass: 200.17763
Instrument type: EI-MS
m/z	relative intensity
15	21
27	99
28	15
29	167
39	61
41	228
42	49
43	999
44	22
45	38
53	22
54	11
55	276
56	45
57	128
58	44
59	15
67	20
68	13
69	183
70	238
71	106
72	14
73	476
74	20
83	83
84	15
85	51
111	77
112	10
115	312
116	19
129	362
130	44
140	55
141	22
143	59
171	35
