Mass spectrum: DICHLOROMETHANE; EI-MS
Formula: CH2Cl2
Exact mass: 83.95336
Instrument type: EI-MS
m/z	relative intensity
31	21
32	22
35	146
36	4
37	54
41	32
42	25
44	3
47	220
48	96
49	999
50	4
51	284
84	601
85	23
86	38
88	58
