Mass spectrum: 1,2,4-TRIMETHYLBENZENE; EI-MS
Formula: C9H12
Exact mass: 120.0939
Instrument type: EI-MS
m/z	relative intensity
77	19
79	33
91	29
92	10
103	18
104	14
105	999
106	87
117	11
119	127
120	963
121	92
