Mass spectrum: 3,5,5-TRIMETHYL-2-CYCLOHEXEN-1-ONE; EI-MS
Name: ISOPHORONE
Formula: C9H14O
Exact mass: 138.10447
Instrument type: EI-MS
m/z	relative intensity
51	29
53	69
54	148
55	5
67	53
77	29
79	27
82	999
83	53
95	48
138	122
