Mass spectrum: 3-METHYLPHENOL; EI-MS
Formula: C7H8O
Exact mass: 108.05751
Instrument type: EI-MS
m/z	relative intensity
51	102
52	54
53	116
54	52
55	30
62	26
63	55
65	36
66	21
77	280
78	68
79	326
80	122
89	48
90	117
91	60
106	47
107	963
108	999
109	75
