Mass spectrum: 2-(TRIMETHYLSILYLMETHYL)BUTA-1,3-DIENE; EI-MS
Formula: C8H16Si
Exact mass: 140.10213
Instrument type: EI-MS
m/z	relative intensity
43	49
44	14
45	64
55	13
58	20
59	103
69	12
71	12
72	16
73	999
74	90
75	35
83	16
85	38
86	16
97	79
98	50
99	17
109	13
125	91
126	11
140	120
141	18
