Mass spectrum: PROPYL CINNAMATE; EI-MS
Formula: C12H14O2
Exact mass: 190.09938
Instrument type: EI-MS
m/z	relative intensity
26	10
27	125
29	33
39	46
41	77
42	16
43	36
50	40
51	164
52	22
63	27
74	20
75	26
76	38
77	373
78	30
91	31
101	13
102	143
103	497
104	122
105	14
120	19
130	18
131	999
132	106
133	15
146	12
147	332
148	492
149	46
190	165
191	18
