Mass spectrum: (3S*,4S*)-3-METHOXYMETHYL-4-(2-METHOXY-2-OXOETHYL)CYCLOTETRADECA-7(E),11(E)-DIENYLCARBOXYLATE; EI-MS
Formula: C24H40O6
Exact mass: 424.28249
Instrument type: EI-MS
m/z	relative intensity
119	45
135	87
136	69
149	5
219	61
249	61
301	54
302	4
309	90
318	331
319	87
322	5
329	29
330	95
331	96
332	6
348	41
349	33
363	999
364	20
393	223
394	168
424	12
