Mass spectrum: DI-TERT-BUTYL PEROXIDE; EI-MS
Formula: C8H18O2
Exact mass: 146.13068
Instrument type: EI-MS
m/z	relative intensity
14	51
15	369
26	25
27	76
29	152
31	30
39	46
41	226
42	61
43	823
45	29
55	20
56	34
57	999
58	226
59	51
73	76
146	43
