Mass spectrum: 2-(2'-HYDROXY-3'-TERT-BUTYL-5'-METHYLPHENYL)-5-CHLORO-BENZOTRIAZOLE; EI-MS
Formula: C17H18ClN3O
Exact mass: 315.11384
Instrument type: EI-MS
m/z	relative intensity
29	48
39	79
41	145
51	25
53	26
63	24
65	63
76	34
77	96
78	23
79	39
90	29
91	125
103	60
104	24
105	65
115	23
117	73
119	263
126	110
128	36
131	22
132	27
133	22
145	32
147	86
154	44
160	43
161	42
272	224
273	56
274	66
300	999
301	191
302	352
303	57
315	522
316	109
317	188
318	30
