Mass spectrum: CAMPHENE; EI-MS
Name: 2,2-DIMETHYL-3-METHYLENEBICYCLO(2.2.1)HEPTANE
Formula: C10H16
Exact mass: 136.1252
Instrument type: EI-MS
m/z	relative intensity
15	14
27	190
29	76
38	15
39	312
40	60
41	378
42	29
43	53
50	20
51	90
52	45
53	170
54	19
55	109
63	30
65	105
66	83
67	299
68	175
69	71
70	16
77	238
78	51
79	375
80	102
81	77
82	48
91	271
92	111
93	999
94	168
95	192
96	11
103	11
105	61
106	15
107	289
108	96
121	670
122	65
136	164
137	15
