Mass spectrum: 2-(CIS-STYRYL)PYRIDINE; EI-MS
Formula: C13H11N
Exact mass: 181.08915
Instrument type: EI-MS
m/z	relative intensity
50	20
51	78
52	15
63	3
64	10
75	28
76	73
77	42
78	79
79	62
89	77
90	56
91	13
101	15
102	26
103	1
104	16
115	10
126	108
127	3
128	19
151	39
152	116
153	3
154	16
178	49
179	48
180	999
181	226
182	45
