Mass spectrum: (Z,Z,Z,Z)-6,9,12,15-OCTADECATETRAENOIC ACID METHYL ESTER; EI-MS
Formula: C19H30O2
Exact mass: 290.22458
Instrument type: EI-MS
m/z	relative intensity
40	23
41	137
43	109
53	15
55	182
56	12
57	45
59	37
65	12
66	85
67	392
68	24
69	133
71	12
74	80
77	108
78	135
79	999
80	479
81	251
82	76
83	59
84	44
85	45
87	109
91	294
92	147
93	603
94	242
95	167
96	14
97	38
98	15
104	19
105	340
106	166
107	256
108	430
109	64
111	10
117	44
118	16
119	249
120	156
121	127
122	128
123	21
131	63
132	12
133	142
134	96
135	151
136	35
145	32
146	17
147	106
148	65
149	46
161	143
162	76
163	20
171	19
175	70
189	34
194	81
215	14
221	85
222	35
234	21
261	14
290	14
