Mass spectrum: DODECANOIC ACID TRIMETHYLSILYL ESTER; EI-MS
Formula: C15H32O2Si
Exact mass: 272.21716
Instrument type: EI-MS
m/z	relative intensity
43	644
45	121
47	125
55	18
56	50
57	87
61	71
67	6
69	104
72	50
73	999
74	11
75	903
76	83
77	75
81	8
83	58
95	75
97	50
98	5
117	694
118	66
129	230
131	14
132	238
145	142
257	338
258	58
