Mass spectrum: 2-METHOXY-1-NAPHTHOIC ACID METHYL ESTER; EI-MS
Formula: C13H12O3
Exact mass: 216.07864
Instrument type: EI-MS
m/z	relative intensity
88	50
114	155
115	64
127	16
128	50
129	54
142	163
149	39
150	46
170	89
185	999
186	16
216	623
217	99
