Mass spectrum: 2-METHYLBUTYL ISOPENTANOATE; EI-MS
Name: 2-METHYLBUTYL ISOVALERATE
Formula: C10H20O2
Exact mass: 172.14633
Instrument type: EI-MS
m/z	relative intensity
27	152
29	210
31	12
39	125
41	375
42	151
43	427
45	25
53	17
55	225
56	46
57	540
58	21
59	19
60	101
61	23
69	30
70	875
71	291
72	16
85	999
86	60
87	71
101	11
102	29
103	106
115	30
130	15
