Mass spectrum: 1,3-BIS(TRIMETHYLSILYL)PROPENE; EI-MS
Formula: C9H22Si2
Exact mass: 186.126
Instrument type: EI-MS
m/z	relative intensity
41	16
44	55
45	16
46	148
59	55
73	999
74	66
75	49
83	71
97	44
98	694
99	44
171	82
186	77
