Mass spectrum: PENTADECANE; EI-MS
Formula: C15H32
Exact mass: 212.2504
Instrument type: EI-MS
m/z	relative intensity
27	106
29	270
39	62
41	442
42	121
43	897
44	27
53	18
54	17
55	224
56	153
57	999
58	44
67	18
68	13
69	85
70	108
71	574
72	33
82	10
83	42
84	56
85	358
86	22
97	19
98	41
99	72
112	33
113	38
126	19
127	37
140	12
141	22
155	16
169	12
212	37
