Mass spectrum: 2-METHYL-(5,6)-BENZOCHROMONE; EI-MS
Formula: C14H10O2
Exact mass: 210.06808
Instrument type: EI-MS
m/z	relative intensity
18	90
28	790
32	210
39	50
63	70
76	80
91	70
105	50
113	80
114	250
115	50
142	90
152	50
170	200
181	150
182	290
209	50
210	999
211	200
