Mass spectrum: BENZOYL FLUORIDE; EI-MS
Formula: C7H5FO
Exact mass: 124.03244
Instrument type: EI-MS
m/z	relative intensity
27	36
37	52
38	69
39	87
47	20
49	44
50	360
51	471
52	55
57	26
61	16
62	21
63	33
69	28
70	137
73	28
74	132
75	138
76	144
77	628
78	164
95	77
96	999
97	62
104	13
105	644
106	46
122	83
123	138
124	836
125	73
