Mass spectrum: TERT-BUTYLDIMETHYLSILOXYBUTANE; EI-MS
Formula: C10H24OSi
Exact mass: 188.15964
Instrument type: EI-MS
m/z	relative intensity
42	27
43	14
45	32
47	31
55	13
57	13
58	21
59	53
61	21
73	104
74	13
75	739
76	58
77	29
87	11
88	11
89	165
90	16
115	19
131	999
132	123
133	43
173	12
188	8
