Mass spectrum: TRIPROPYLAMINE; EI-MS
Formula: C9H21N
Exact mass: 143.1674
Instrument type: EI-MS
m/z	relative intensity
41	16
42	11
43	508
44	55
45	198
56	45
57	483
58	35
59	48
68	33
71	999
72	66
73	11
76	48
85	872
86	84
87	28
98	62
112	34
143	14
