Mass spectrum: TRIPHENYL PHOSPHITE; EI-MS
Formula: C18H15O3P
Exact mass: 310.07588
Instrument type: EI-MS
m/z	relative intensity
77	88
152	27
153	87
154	25
170	34
199	41
217	999
218	135
219	15
309	82
310	350
311	68
312	10
