Mass spectrum: 2-HEXANONE; EI-MS
Name: METHYL BUTYL KETONE
Formula: C6H12O
Exact mass: 100.08882
Instrument type: EI-MS
m/z	relative intensity
15	74
26	17
27	123
28	3
29	192
39	79
40	10
41	19
43	999
44	23
53	11
55	2
57	180
58	537
59	31
71	6
85	68
100	142
101	12
