Mass spectrum: 4-HEPTANONE; EI-MS
Name: DIPROPYL KETONE
Formula: C7H14O
Exact mass: 114.10447
Instrument type: EI-MS
m/z	relative intensity
15	22
26	15
27	217
28	3
29	37
39	105
40	15
41	23
42	42
43	999
44	34
55	3
57	21
58	68
70	15
71	85
72	40
86	14
99	22
114	15
115	15
