Mass spectrum: METHYL 2-((1E),(3Z)-3-METHYL-7-OXOOCTA-1,3-DIENYL)-1,3-DIMETHYL-4-OXOCYCLOHEX-2-ENYL-1-CARBOXYLATE; EI-MS
Name: 9E-TRISPORIC ACID B METHYL ESTER
Formula: C19H26O4
Exact mass: 318.18311
Instrument type: EI-MS
m/z	relative intensity
41	171
43	999
55	317
77	17
79	203
81	128
91	259
93	29
95	105
105	210
107	123
115	12
117	146
119	179
123	122
128	1
129	126
131	207
133	225
135	14
136	133
143	142
145	264
147	2
149	150
157	200
158	117
159	40
160	293
161	276
163	116
171	12
172	106
173	372
175	135
183	3
185	214
187	233
197	368
200	18
201	384
215	394
243	129
260	26
275	203
318	644
319	142
