Mass spectrum: DIPHENYLDISULFIDE; EI-MS
Formula: C12H10S2
Exact mass: 218.02239
Instrument type: EI-MS
m/z	relative intensity
37	7
38	28
39	223
40	7
44	12
45	75
50	59
51	158
52	13
57	22
58	30
59	17
61	6
62	17
63	55
64	10
65	433
66	39
69	177
70	14
71	13
74	18
75	18
76	11
77	130
78	19
81	17
82	49
83	27
84	9
93	7
96	10
97	11
107	6
108	94
109	999
110	115
111	62
112	5
140	71
141	55
142	11
152	14
153	14
154	181
155	26
184	56
185	136
186	38
187	10
217	13
218	913
219	166
220	113
221	16
222	4
