Mass spectrum: ETHYLENE GLYCOL DIDEUTEROACETYL ESTER; EI-MS
Name: ETHYLENE DI((2H3)ACETATE)
Formula: C6H10O4
Exact mass: 146.05791
Instrument type: EI-MS
m/z	relative intensity
18	66
28	24
44	22
45	4
46	999
47	22
76	34
89	5
92	42
109	28
122	34
