Mass spectrum: BETA-BISABOLENE; EI-MS
Formula: C15H24
Exact mass: 204.1878
Instrument type: EI-MS
m/z	relative intensity
26	5
27	73
28	13
29	7
39	110
40	23
41	685
42	3
43	66
51	23
52	15
53	12
54	15
55	150
56	20
57	2
63	8
65	46
66	21
67	26
69	999
70	58
77	117
78	4
79	237
80	75
81	103
82	5
83	15
84	6
91	161
92	1
93	690
94	265
95	110
96	1
97	10
103	10
104	5
105	12
106	55
107	175
108	65
109	24
110	21
111	5
115	11
117	1
118	6
119	168
120	65
121	1
122	41
123	11
128	5
131	1
132	8
134	82
135	103
136	0
147	40
148	20
149	6
157	0
159	5
160	6
161	172
162	3
163	8
175	10
176	8
189	4
190	6
202	6
204	245
205	42
