Mass spectrum: 2,7-DIPHENYLINDOLE; EI-MS
Formula: C20H15N
Exact mass: 269.12045
Instrument type: EI-MS
m/z	relative intensity
120.5	19
127	15
132.5	17
133	1
133.5	33
134	15
134.5	46
135	1
139	14
163	18
164	25
165	10
166	24
167	10
191	21
192	1
193	34
240	21
241	34
242	1
253	12
264	16
265	52
266	7
267	155
268	199
269	999
270	28
271	45
