Mass spectrum: BIS(TRIMETHYLSILYLMETHYL) SULFIDE; EI-MS
Formula: C8H22SSi2
Exact mass: 206.09807
Instrument type: EI-MS
m/z	relative intensity
43	78
44	345
45	154
46	29
47	22
48	17
57	17
58	28
59	115
64	20
72	56
73	999
74	89
75	134
77	18
90	34
103	24
105	21
118	32
119	78
163	39
191	124
192	26
193	17
206	51
207	16
