Mass spectrum: 5-DIMETHYLAMINOMETHYLENEAMINO-2-MESYLPYRIMIDINE; EI-MS
Formula: C8H12N4O2S
Exact mass: 228.0681
Instrument type: EI-MS
m/z	relative intensity
38	3
39	5
40	12
41	3
42	258
43	30
44	999
45	5
46	14
47	3
48	7
51	2
52	42
53	16
54	22
55	1
56	41
57	134
58	7
63	1
64	9
65	5
66	9
67	2
68	12
69	10
70	3
71	2
74	5
76	2
77	29
78	3
79	80
80	18
81	38
82	1
83	23
84	6
91	1
92	0
93	9
94	13
95	49
96	1
97	4
104	2
105	5
106	2
107	26
108	80
109	19
110	2
111	4
119	3
120	11
121	2
122	97
123	12
124	31
125	0
126	2
132	13
133	11
134	2
135	6
136	8
137	5
138	7
139	5
147	12
148	63
149	35
150	37
151	6
154	2
158	1
160	2
163	11
164	8
165	16
166	16
170	2
172	21
173	0
174	1
181	2
184	6
185	0
186	4
187	34
188	3
189	0
196	8
197	4
198	34
199	1
200	43
201	13
202	3
211	0
212	61
213	39
214	7
215	0
226	10
227	295
228	787
229	13
230	48
231	5
