Mass spectrum: META-METHOXYCINNAMIC ACID TRIMETHYLSILYL ESTER; EI-MS
Formula: C13H18O3Si
Exact mass: 250.10252
Instrument type: EI-MS
m/z	relative intensity
45	210
47	156
51	85
63	11
64	85
73	242
75	960
76	12
77	320
79	85
89	195
90	20
92	93
102	140
103	101
118	29
133	289
161	999
162	109
175	30
191	796
192	140
235	843
236	13
250	304
251	78
