Mass spectrum: PENTYL 2-FURYLPROPIONATE; EI-MS
Formula: C12H18O3
Exact mass: 210.12559
Instrument type: EI-MS
m/z	relative intensity
29	26
41	74
43	450
53	21
55	42
67	64
68	30
69	10
71	40
81	999
97	272
98	11
123	85
139	165
140	360
141	21
210	114
211	11
