Mass spectrum: DIMETHYL MALONATE; EI-MS
Formula: C5H8O4
Exact mass: 132.04226
Instrument type: EI-MS
m/z	relative intensity
15	43
29	69
42	65
43	106
45	41
57	162
58	37
59	499
60	12
69	40
74	417
75	16
100	41
101	999
102	46
132	43
133	21
