Mass spectrum: 2,2-DIPROPYL-5,5-DIMETHYL-1,3-CYCLOHEXANEDIONE; EI-MS
Formula: C14H24O2
Exact mass: 224.17763
Instrument type: EI-MS
m/z	relative intensity
41	450
43	180
55	310
69	230
82	60
83	999
84	160
97	350
98	150
111	150
126	180
149	100
153	100
154	170
165	70
167	330
168	100
182	320
195	320
196	90
224	90
