Mass spectrum: (Z)-GAMMA-PHENOXYALLYLTRIMETHYLSILANE; EI-MS
Formula: C12H18OSi
Exact mass: 206.11269
Instrument type: EI-MS
m/z	relative intensity
43	42
44	13
45	69
51	36
55	10
58	14
59	36
72	11
73	999
74	94
75	71
76	9
77	66
91	15
95	11
105	11
116	22
117	61
129	63
135	20
137	16
151	162
152	24
177	8
179	23
191	122
192	23
205	66
206	138
207	26
