Mass spectrum: ISOXAZOLE; EI-MS
Formula: C3H3NO
Exact mass: 69.02146
Instrument type: EI-MS
m/z	relative intensity
13	49
14	491
15	33
17	43
18	300
25	44
26	85
27	41
29	347
30	36
37	53
38	160
39	194
40	841
41	405
42	118
68	725
69	999
70	65
