Mass spectrum: 4-BROMOPHENYL PHENYL ETHER; EI-MS
Formula: C12H9BrO
Exact mass: 247.98368
Instrument type: EI-MS
m/z	relative intensity
50	244
51	373
52	24
61	2
62	65
63	225
64	92
65	9
66	29
70	55
74	101
75	17
76	176
77	585
78	43
89	2
92	33
93	21
94	33
115	29
116	32
117	32
119	27
139	13
140	39
141	695
142	87
143	7
145	67
155	40
157	40
168	15
169	125
172	45
174	43
220	5
222	46
248	999
249	140
250	89
251	135
