Mass spectrum: ETHYL 3-ACETYLBENZOATE; EI-MS
Formula: C11H12O3
Exact mass: 192.07864
Instrument type: EI-MS
m/z	relative intensity
26	38
27	199
29	222
30	1
38	20
39	90
40	11
41	2
42	22
43	517
44	30
45	3
50	288
51	156
52	30
53	2
62	27
63	64
64	17
65	34
66	50
74	91
75	148
76	49
77	202
78	19
89	48
90	2
91	258
92	23
93	29
103	7
104	155
105	49
119	97
120	3
121	200
122	26
147	378
148	5
149	452
150	40
164	18
177	999
178	116
179	10
192	341
193	44
