Mass spectrum: 2-ETHYLPYRIDINE; EI-MS
Formula: C7H9N
Exact mass: 107.0735
Instrument type: EI-MS
m/z	relative intensity
29	19
37	32
38	45
39	14
40	30
41	22
49	28
50	9
51	182
52	161
53	61
54	3
63	30
64	23
65	77
66	3
75	30
76	29
77	37
78	16
79	256
80	60
92	34
104	3
105	26
106	999
107	451
108	40
