Mass spectrum: ORTHO-PHTHALIC ACID BIS(TRIMETHYLSILYL) ESTER; EI-MS
Formula: C14H22O4Si2
Exact mass: 310.10566
Instrument type: EI-MS
m/z	relative intensity
43	111
47	116
49	203
63	7
65	81
73	304
75	91
76	12
77	999
78	76
79	142
93	36
94	60
95	126
221	55
295	24
296	60
279	55
