Mass spectrum: TRANS-2-HEXENAL; EI-MS
Formula: C6H10O
Exact mass: 98.07316
Instrument type: EI-MS
m/z	relative intensity
15	37
26	74
27	533
28	75
29	438
31	18
37	32
38	96
39	727
40	124
41	999
42	570
43	175
44	20
50	46
51	60
52	26
53	117
54	93
55	640
56	126
57	398
58	16
62	13
63	18
65	25
66	10
67	35
68	59
69	534
70	161
71	14
79	51
80	62
81	22
83	467
84	24
97	75
98	205
99	14
