Mass spectrum: PIPAMAZINE; EI-MS
Formula: C21H24ClN3OS
Exact mass: 401.13286
Instrument type: EI-MS
m/z	relative intensity
39	119
41	489
42	579
43	24
44	149
55	329
56	159
57	18
67	99
69	199
70	199
71	13
80	49
81	59
82	139
83	11
84	79
95	59
96	299
97	12
98	209
109	59
112	79
123	9
124	189
127	59
135	59
141	999
142	89
150	49
151	359
152	7
153	59
155	89
167	39
168	4
169	329
170	29
178	29
179	3
188	29
196	59
197	59
198	6
210	9
211	39
212	39
213	3
214	129
215	29
218	19
219	2
223	19
224	19
225	29
232	16
233	189
234	89
238	29
239	2
246	59
247	59
258	19
259	3
260	19
272	179
273	99
349	1
366	9
367	9
383	109
401	29
