Mass spectrum: PHENYLTOLOXAMINE; EI-MS
Name: N,N-DIMETHYL-2-(2-(BENZYL)PHENOXY)ETHYLAMINE
Formula: C17H21NO
Exact mass: 255.16231
Instrument type: EI-MS
m/z	relative intensity
39	9
40	69
41	9
42	4
43	19
44	29
45	9
46	3
50	4
51	9
54	4
55	1
56	29
57	19
58	999
59	4
70	14
71	39
72	49
73	0
76	4
77	19
78	19
79	0
90	4
91	34
92	4
164	0
165	19
166	9
167	4
181	1
182	4
183	9
184	19
210	3
211	4
255	99
256	19
