Mass spectrum: P-HYDROXY NITROBENZEN; EI-MS
Formula: C6H5NO3
Exact mass: 139.02694
Instrument type: EI-MS
m/z	relative intensity
18	74
27	91
29	54
30	77
38	120
39	615
44	36
45	38
50	39
51	37
52	35
53	169
62	74
63	168
64	75
65	703
66	46
81	208
93	242
109	315
123	55
139	999
140	56
