Mass spectrum: 1-BROMO-2-METHYLPROPANE; EI-MS
Formula: C4H9Br
Exact mass: 135.98876
Instrument type: EI-MS
m/z	relative intensity
42	92
43	343
55	33
56	22
57	999
58	43
93	10
95	10
121	22
123	20
136	22
138	21
