Mass spectrum: 2-METHYLQUINOLINE; EI-MS
Formula: C10H9N
Exact mass: 143.0735
Instrument type: EI-MS
m/z	relative intensity
27	12
39	38
44	11
50	4
51	58
52	18
62	18
63	4
64	14
65	17
70.5	14
71.5	3
74	27
75	53
76	41
77	6
78	11
88	11
89	40
90	2
91	12
101	62
102	33
103	1
104	13
106	16
113	12
114	2
115	157
116	70
117	54
118	2
128	168
129	23
130	15
132	9
133	11
140	26
141	19
142	12
143	999
144	116
147	30
160	11
