Mass spectrum: DL-ALPHA-PHENYLPROPIONIC ACID TRIMETHYLSILYL ESTER; EI-MS
Name: TRIMETHYLSILYL DL-ALPHA-PHENYLPROPIONATE
Formula: C12H18O2Si
Exact mass: 222.10761
Instrument type: EI-MS
m/z	relative intensity
44	35
45	59
47	18
51	2
73	999
74	94
75	243
77	11
79	35
103	35
104	35
105	7
117	16
147	47
178	172
179	2
207	134
208	16
