Mass spectrum: 3-O-METHYL-1,2,4,5,6-PENTA-O-ACETYL GLUCITOL; EI-MS
Formula: C17H26O11
Exact mass: 406.14751
Instrument type: EI-MS
m/z	relative intensity
39	6
41	20
42	36
43	999
44	42
45	32
53	5
55	13
57	7
59	12
60	26
61	7
68	7
69	29
70	12
71	47
72	6
73	18
74	35
75	15
81	12
82	5
84	7
85	164
86	24
87	248
88	13
89	10
97	16
98	8
99	199
100	61
101	11
103	46
104	5
110	6
111	35
112	13
113	26
115	45
116	13
117	32
124	12
125	20
126	6
127	221
128	27
129	600
130	53
131	8
139	9
141	35
142	30
143	9
145	35
153	13
154	5
155	6
157	14
158	5
159	67
160	5
170	5
171	5
184	7
185	5
187	39
189	298
190	27
191	6
201	66
202	6
217	9
231	13
261	240
262	28
263	5
