Mass spectrum: 2-(3-FLUOROPHENYL)PYRIMIDINE; EI-MS
Formula: C10H7FN2
Exact mass: 174.05933
Instrument type: EI-MS
m/z	relative intensity
44	15
50	14
51	17
52	2
53	13
55	7
56	15
57	1
63	5
68	7
69	7
70	1
74	10
75	28
76	9
77	4
81	7
83	5
86	7
87	6
87.5	5
93	10
94	70
95	4
99	5
101	5
109	5
113	1
114	28
120	11
121	543
122	7
132	10
146	17
147	82
148	1
164	5
173	84
174	999
175	10
176	7
