Mass spectrum: 3-METHOXY-3-METHYLBUTANOL; EI-MS
Formula: C6H14O2
Exact mass: 118.09938
Instrument type: EI-MS
m/z	relative intensity
29	17
31	20
33	58
41	80
43	53
45	35
53	28
55	28
56	45
57	19
58	17
69	75
71	28
73	999
74	47
85	69
103	101
