Mass spectrum: 1,1-DIMETHYL-3-PHENYLPROPYL ACETATE; EI-MS
Name: DIMETHYL PHENYLETHYL CARBINYL ACETATE
Formula: C13H18O2
Exact mass: 206.13068
Instrument type: EI-MS
m/z	relative intensity
15	38
18	33
27	44
28	13
29	24
31	15
39	91
41	88
42	13
43	756
44	15
50	15
51	62
52	14
53	16
55	17
56	25
59	124
63	26
65	145
66	10
68	21
77	91
78	36
79	34
89	22
91	701
92	51
101	16
103	37
104	42
105	94
115	22
116	18
117	23
128	14
129	25
130	11
131	999
132	114
145	23
146	425
147	63
149	44
