Mass spectrum: 2-ETHOXYETHYL ACETATE; EI-MS
Formula: C6H12O3
Exact mass: 132.07864
Instrument type: EI-MS
m/z	relative intensity
15	51
27	53
28	31
29	148
31	447
41	39
42	24
43	999
44	198
45	86
58	24
59	439
60	16
61	31
70	15
72	302
73	38
74	19
87	61
88	58
89	13
