Mass spectrum: 2-(2-CHLOROPHENYL)-1,1-DIPHENYLETHENE; EI-MS
Formula: C20H15Cl
Exact mass: 290.08623
Instrument type: EI-MS
m/z	relative intensity
50	12
51	43
63	23
74	1
75	26
76	16
77	34
87	2
88	21
89	12
99	16
100	4
101	61
102	10
112	43
113	20
114	72
115	12
119	27
120	6
124	16
125	137
126	361
127	7
128	14
139	11
150	29
151	6
152	47
153	11
163	16
164	1
165	78
166	11
176	142
177	11
178	181
179	48
187	10
189	2
199	25
200	20
201	16
202	2
212	67
213	43
214	29
215	4
224	18
225	17
226	57
227	3
228	38
238	15
239	261
240	28
241	57
249	21
250	87
251	5
252	377
253	480
254	420
255	999
256	204
257	21
275	16
289	2
290	715
291	178
292	253
293	56
