Mass spectrum: 2,6-DIMETHYLINDOLE; EI-MS
Formula: C10H11N
Exact mass: 145.08915
Instrument type: EI-MS
m/z	relative intensity
27	15
28	12
39	23
42	11
51	29
58.5	31
71.5	99
72.5	47
77	58
89	17
102	25
103	35
115	98
117	28
130	146
131	20
144	999
145	937
146	103
