Mass spectrum: 2-PHENYLPROPIONIC ACID; EI-MS
Formula: C9H10O2
Exact mass: 150.06808
Instrument type: EI-MS
m/z	relative intensity
15	11
18	29
26	13
27	52
28	47
29	10
32	11
38	13
39	49
43	13
45	137
50	44
51	89
52	21
53	14
62	13
63	34
65	19
74	15
75	14
76	12
77	168
78	75
79	126
80	11
83	15
89	17
91	107
92	13
102	15
103	102
104	57
105	999
106	105
107	10
119	10
150	249
151	25
