Mass spectrum: ANILINE; EI-MS
Formula: C6H7N
Exact mass: 93.05785
Instrument type: EI-MS
m/z	relative intensity
15	10
26	21
27	25
28	8
37	30
38	69
39	167
40	5
41	52
42	21
45	19
47	8
50	30
51	45
52	45
53	2
54	49
61	18
62	29
63	4
64	20
65	182
66	326
67	4
74	20
76	15
77	15
78	1
91	18
92	100
93	999
94	57
