Mass spectrum: N-ETHYL-META-TOLUIDINE; EI-MS
Formula: C9H13N
Exact mass: 135.1048
Instrument type: EI-MS
m/z	relative intensity
27	32
28	75
39	53
41	20
42	14
44	14
51	32
52	12
58.5	22
59.5	31
60	23
63	23
65	110
77	75
78	15
79	25
89	23
91	248
92	56
93	59
106	19
118	72
119	38
120	999
121	98
133	29
134	53
135	361
136	36
