Mass spectrum: 1-PENTEN-3-ONE; EI-MS
Formula: C5H8O
Exact mass: 84.05751
Instrument type: EI-MS
m/z	relative intensity
15	12
26	103
27	479
28	24
29	190
38	10
39	34
41	16
42	22
53	14
55	999
56	63
57	73
83	11
84	130
85	16
