Mass spectrum: CHLORPROMAZINE; EI-MS
Name: 2-CHLORO-N,N-DIMETHYL-10H-PHENOTHIAZINE-10-PROPANAMINE
Formula: C17H19ClN2S
Exact mass: 318.09575
Instrument type: EI-MS
m/z	relative intensity
56	17
57	26
58	999
59	6
63	14
69	21
70	43
71	27
72	43
75	10
77	13
84	47
85	177
86	415
87	26
139	1
152	16
153	15
164	11
188	14
196	30
197	31
198	32
200	13
201	14
210	11
211	14
212	13
213	13
214	52
215	10
216	18
223	24
224	11
225	11
232	83
233	116
234	49
235	43
236	10
238	13
244	11
246	43
247	40
248	21
249	14
258	21
259	39
260	21
261	15
272	151
273	84
274	70
275	31
318	389
319	80
320	141
321	30
