Mass spectrum: 2,4,6-TRI-TERT-BUTYL-1-TRIFLUOROSILYLBENZENE; EI-MS
Name: TRIFLUORO-2,4,6-TRI-TERT-BUTYLPHENYLSILANE
Formula: C18H29F3Si
Exact mass: 330.19906
Instrument type: EI-MS
m/z	relative intensity
42	10
43	31
44	12
53	11
55	38
57	999
58	45
59	10
77	14
91	22
105	11
115	16
128	15
129	13
141	10
142	10
143	28
199	14
231	25
243	11
259	746
260	147
261	40
274	48
275	11
315	55
316	13
330	57
331	15
