Mass spectrum: METHYL 3-PHENYLPROPIONATE; EI-MS
Name: 3-PHENYLPROPIONIC ACID METHYL ESTER
Formula: C10H12O2
Exact mass: 164.08373
Instrument type: EI-MS
m/z	relative intensity
15	90
27	77
28	11
29	29
31	11
38	12
39	100
41	13
42	26
50	53
51	163
52	32
53	15
55	16
59	33
62	12
63	44
64	10
65	104
74	16
75	13
76	16
77	197
78	146
79	108
89	22
90	11
91	643
92	41
102	17
103	115
104	999
105	347
106	21
107	42
131	17
133	88
164	239
165	20
