Mass spectrum: DIMETHYL PHTHALATE; EI-MS
Name: 1,2-BENZENEDICARBOXYLIC ACID DIMETHYL ESTER
Formula: C10H10O4
Exact mass: 194.05791
Instrument type: EI-MS
m/z	relative intensity
15	43
28	21
29	12
39	15
50	83
51	28
52	11
63	12
64	22
74	23
75	26
76	91
77	221
78	15
79	17
92	79
104	44
105	30
120	20
133	48
135	69
163	999
164	99
165	11
194	66
