Mass spectrum: N-HEXADECANE; EI-MS
Formula: C16H34
Exact mass: 226.26605
Instrument type: EI-MS
m/z	relative intensity
40	51
41	622
42	268
43	999
44	42
53	27
54	76
55	266
56	391
57	929
58	55
68	21
72	20
82	14
83	48
84	75
85	385
86	63
97	35
98	54
99	124
100	12
111	16
112	41
113	73
126	33
127	51
140	29
141	39
154	22
155	32
168	16
169	26
183	16
225	25
226	63
227	12
