Mass spectrum: CAMPHORIC ACID BIS(TRIMETHYLSILYL) ESTER; EI-MS
Name: DI(TRIMETHYLSILYL) 1,2,2-TRIMETHYL-1,3-CYCLOPENTANEDICARBOXYLATE
Formula: C16H32O4Si2
Exact mass: 344.18391
Instrument type: EI-MS
m/z	relative intensity
45	92
55	129
69	259
73	999
74	70
75	240
77	100
108	31
109	311
137	188
138	100
148	39
198	62
226	107
329	118
330	25
