Mass spectrum: TRIETHYLAMINE; EI-MS
Formula: C6H15N
Exact mass: 101.12045
Instrument type: EI-MS
m/z	relative intensity
15	64
18	32
26	28
27	188
28	111
29	194
30	344
39	13
41	40
42	161
43	23
44	127
54	17
56	79
57	22
58	254
70	34
71	14
72	30
86	999
87	59
100	58
101	192
102	16
