Mass spectrum: AFLATOXIN B1; EI-MS
Name: 2,3,6AALPHA;9AALPHA-TETRAHYDRO-4-METHOXYCYCLOPENTA(C)FURO(3',2':4,5)FURO(2,3-H)(1)BENZOPYRAN-1,11-DIONE
Formula: C17H12O6
Exact mass: 312.06339
Instrument type: EI-MS
m/z	relative intensity
199	30
200	18
201	12
210	1
213	48
214	13
227	86
228	11
229	25
238	26
241	85
242	2
253	13
255	74
256	126
257	2
266	25
269	103
270	24
281	6
282	17
283	119
284	226
285	4
294	24
311	25
312	999
313	21
314	34
