Mass spectrum: CYCLOHEXYL CHLORIDE; EI-MS
Formula: C6H11Cl
Exact mass: 118.05493
Instrument type: EI-MS
m/z	relative intensity
15	12
26	25
27	197
28	57
29	76
38	21
39	242
40	51
41	501
42	73
43	37
49	15
50	26
51	45
52	20
53	368
54	446
55	99
62	28
65	18
66	17
67	999
68	331
69	20
118	44
120	13
