Mass spectrum: 2,4,6-TRIS(TRIMETHYLSILOXY)BENZOIC ACID TRIMETHYLSILYL ESTER; EI-MS
Formula: C19H38O5Si4
Exact mass: 458.17963
Instrument type: EI-MS
m/z	relative intensity
44	58
73	999
74	73
75	8
131	19
133	38
147	197
148	2
149	31
191	11
193	15
195	1
207	42
265	19
281	15
283	3
296	11
297	19
325	31
337	2
339	19
353	42
355	124
356	3
357	15
369	85
370	23
371	2
441	11
443	689
444	810
445	42
446	104
447	31
458	62
459	23
