Mass spectrum: COCAINE; EI-MS
Formula: C17H21NO4
Exact mass: 303.14706
Instrument type: EI-MS
m/z	relative intensity
24	10
25	14
26	56
27	8
28	452
29	65
30	41
31	0
32	32
36	15
37	31
38	5
39	220
40	59
41	170
42	30
43	44
44	86
45	20
46	0
47	8
48	10
49	18
50	1
51	152
52	60
53	95
54	6
55	120
56	49
57	62
58	3
59	62
60	10
61	10
62	1
63	21
64	14
65	53
66	4
67	93
68	81
69	52
70	4
71	18
72	64
73	15
74	3
75	20
76	31
77	310
78	12
79	54
80	135
81	210
82	999
83	321
84	48
85	18
86	0
87	4
88	1
89	12
90	0
91	61
92	24
93	50
94	26
95	44
96	174
97	81
98	1
99	10
100	128
101	8
102	0
103	12
104	15
105	254
106	4
107	27
108	59
109	14
110	0
111	10
112	10
113	4
114	0
115	14
116	10
117	12
118	0
119	47
120	31
121	20
122	13
123	29
124	14
125	10
126	0
127	8
128	10
129	10
130	0
131	4
132	10
133	11
134	1
135	13
136	10
137	2
138	2
139	10
140	16
141	4
142	0
143	12
144	4
145	2
146	0
147	4
148	14
149	10
150	6
151	19
152	42
153	12
154	2
155	26
156	8
157	4
163	0
164	10
165	14
166	31
167	0
168	10
169	4
177	4
178	1
179	14
180	22
181	52
182	45
183	58
184	10
185	4
198	7
199	14
200	4
201	2
210	0
211	2
212	1
218	3
220	0
221	1
222	2
223	1
244	0
245	1
272	38
273	10
274	0
275	2
303	78
304	20
305	1
306	2
