Mass spectrum: DI-SEC-BUTYL ETHER; EI-MS
Formula: C8H18O
Exact mass: 130.13577
Instrument type: EI-MS
m/z	relative intensity
29	105
41	170
43	56
56	10
57	999
58	60
59	443
114	153
