Mass spectrum: 1-METHYLBICYCLO(4.4.0)DECANE-4,4-D2(CIS); EI-MS
Formula: C11H20
Exact mass: 152.1565
Instrument type: EI-MS
m/z	relative intensity
41	14
43	10
55	49
56	38
57	22
67	102
68	87
69	114
70	46
71	30
81	121
82	240
83	203
84	105
85	45
95	202
96	145
97	371
98	147
99	19
109	100
110	61
111	122
112	71
125	38
126	11
138	102
139	999
140	110
154	194
155	24
