Mass spectrum: VALERALDEHYDE; EI-MS
Formula: C5H10O
Exact mass: 86.07316
Instrument type: EI-MS
m/z	relative intensity
15	28
26	37
27	270
28	98
29	445
30	16
31	18
38	18
39	132
40	23
41	337
42	106
43	160
44	999
45	116
50	12
51	12
53	17
55	39
56	19
57	169
58	338
59	14
67	10
71	16
86	26
