Mass spectrum: 2,5-HEXANEDIONE; EI-MS
Formula: C6H10O2
Exact mass: 114.06808
Instrument type: EI-MS
m/z	relative intensity
15	87
26	16
27	63
28	15
29	13
39	20
41	13
42	49
43	999
44	20
55	11
57	43
71	91
72	14
99	160
114	32
