Mass spectrum: BIS(TRIMEHYLSILYL)ACETYLENE; EI-MS
Formula: C8H18Si2
Exact mass: 170.0947
Instrument type: EI-MS
m/z	relative intensity
43	19
45	23
55	11
59	16
67	15
70	51
73	136
83	27
97	44
101	11
117	19
125	17
139	16
155	999
156	190
157	85
158	12
170	91
171	20
