Mass spectrum: (S)-2-METHYL-5-(1-METHYLETHENYL)-2-CYCLOHEXEN-1-ONE; EI-MS
Name: L-CARVONE
Formula: C10H14O
Exact mass: 150.10447
Instrument type: EI-MS
m/z	relative intensity
51	14
52	39
53	17
54	103
55	375
56	37
58	125
63	13
65	41
66	15
67	63
68	17
69	39
77	64
78	16
79	94
80	44
81	23
82	999
83	54
91	81
92	49
93	256
94	57
95	37
105	26
106	132
107	160
108	299
109	38
117	9
119	10
121	16
122	15
135	30
150	101
151	10
