Mass spectrum: HEXANAL BENZYL ETHYL ACETAL; EI-MS
Formula: C15H24O2
Exact mass: 236.17763
Instrument type: EI-MS
m/z	relative intensity
27	31
29	53
39	21
41	39
43	36
51	12
55	59
57	35
65	51
77	16
79	12
83	56
85	13
89	11
90	14
91	999
92	101
107	16
129	45
165	64
