Mass spectrum: 4-OXOPENTANOIC ACID TRIMETHYLSILYL ESTER; EI-MS
Name: LEVULINIC ACID TRIMETHYLSILYL ESTER
Formula: C8H16O3Si
Exact mass: 188.08687
Instrument type: EI-MS
m/z	relative intensity
43	481
44	37
45	167
47	16
51	50
53	37
55	117
56	14
57	44
58	28
59	41
61	12
71	28
72	41
73	999
74	10
75	196
76	132
77	107
81	8
86	44
98	53
99	101
111	3
129	139
130	82
131	136
144	4
145	572
146	205
147	44
155	8
173	772
174	113
175	31
