Mass spectrum: 1,2,4-TRICHLOROBENZENE; EI-MS
Formula: C6H3Cl3
Exact mass: 179.93003
Instrument type: EI-MS
m/z	relative intensity
49	38
50	62
60	23
61	2
72	65
73	114
74	216
75	13
84	84
85	38
86	29
90	4
91	47
108	34
109	221
110	5
111	74
144	30
145	290
146	4
147	171
149	28
180	999
181	6
182	963
183	61
184	302
185	2
186	30
