Mass spectrum: 2-PENTYLFURAN; EI-MS
Formula: C9H14O
Exact mass: 138.10447
Instrument type: EI-MS
m/z	relative intensity
29	23
41	39
53	94
54	22
67	32
68	33
81	999
82	220
83	17
94	28
95	45
96	11
109	10
138	136
