Mass spectrum: 7-HYDROXYCOUMARIN; EI-MS
Formula: C9H6O3
Exact mass: 162.03169
Instrument type: EI-MS
m/z	relative intensity
27	16
37	15
38	45
38.5	13
39	81
43	18
50	57
51	14
52	52
52.5	16
53	50
55	2
61	23
62	51
63	86
64	3
65	44
67	102
69	70
74	1
76	17
77	132
78	217
79	3
105	186
106	80
133	26
134	86
135	71
161	10
162	999
163	12
164	13
