Mass spectrum: CHLOROFORM; EI-MS
Formula: CHCl3
Exact mass: 117.91438
Instrument type: EI-MS
m/z	relative intensity
35	144
36	25
37	48
47	30
48	119
49	105
50	39
82	4
83	999
84	38
85	647
87	95
