Mass spectrum: 4-CHLORO-3-BUTEN-2-ONE; EI-MS
Name: -BUTENE-3-ONE-1-CHLORO
Formula: C4H5ClO
Exact mass: 104.00289
Instrument type: EI-MS
m/z	relative intensity
26	19
43	306
60	11
61	18
62	11
63	58
89	999
90	3
91	338
92	13
104	270
105	1
106	90
