Mass spectrum: FERROCENE; EI-MS
Name: BIS(METHYLCYCLOPENTADIENYL)IRON
Formula: C12H14Fe
Exact mass: 214.04449
Instrument type: EI-MS
m/z	relative intensity
18	32
32	27
200	48
212	7
213	17
214	999
215	189
216	19
