Mass spectrum: BUTYL GLYOXYLATE DIBUTYLACETAL; EI-MS
Formula: C14H28O4
Exact mass: 260.19876
Instrument type: EI-MS
m/z	relative intensity
27	42
29	251
39	27
41	247
43	22
55	37
56	62
57	999
58	68
103	263
159	180
160	21
