Mass spectrum: 3-CHLORO-1-PROPYNE; EI-MS
Name: PROPARGYL CHLORIDE
Formula: C3H3Cl
Exact mass: 73.99233
Instrument type: EI-MS
m/z	relative intensity
25	17
26	14
27	13
35	19
36	45
37	208
38	269
39	999
40	37
44	81
47	35
49	18
73	63
74	430
75	65
76	136
77	20
