Mass spectrum: KOJIC ACID; EI-MS
Formula: C6H6O4
Exact mass: 142.02661
Instrument type: EI-MS
m/z	relative intensity
142	999
140	100
113	340
97	150
85	220
69	720
57	300
55	190
39	400
29	520
