Mass spectrum: 3,5-DIMETHYLPHENOL; EI-MS
Formula: C8H10O
Exact mass: 122.07316
Instrument type: EI-MS
m/z	relative intensity
51	133
52	55
53	106
55	45
59	26
60	52
61	26
62	28
63	42
64	24
65	69
66	29
67	26
76	51
77	342
78	102
79	207
90	34
91	173
92	26
93	54
94	31
103	36
104	28
105	26
106	238
107	999
108	83
120	81
121	553
122	953
123	88
