Mass spectrum: CINNAMYL BUTYRATE; EI-MS
Name: 3-PHENYLALLYL BUTYRATE
Formula: C13H16O2
Exact mass: 204.11503
Instrument type: EI-MS
m/z	relative intensity
27	115
29	19
39	98
41	106
42	18
43	578
44	17
50	14
51	54
52	12
55	17
57	12
62	10
63	30
65	32
71	999
72	33
76	11
77	88
78	34
79	19
89	24
91	114
92	36
102	24
103	37
104	16
105	53
115	367
116	178
117	318
118	26
131	11
133	115
134	75
204	99
205	11
