Mass spectrum: STYRENE OXIDE; EI-MS
Formula: C8H8O
Exact mass: 120.05751
Instrument type: EI-MS
m/z	relative intensity
18	25
27	15
28	13
29	29
38	22
39	86
41	14
44	12
50	43
51	71
52	18
61	15
62	28
63	71
64	24
65	133
66	13
74	16
75	12
76	11
77	39
78	17
89	78
90	60
91	999
92	249
93	16
103	21
104	22
105	27
106	21
119	31
120	216
121	21
