Mass spectrum: 2-PHENYL-PHENOL; EI-MS
Name: 2-HYDROXYBIPHENYL
Formula: C12H10O
Exact mass: 170.07316
Instrument type: EI-MS
m/z	relative intensity
38	8
39	34
40	3
50	15
51	24
52	6
62	13
63	38
64	8
65	11
74	12
75	13
76	10
77	17
78	5
84	4
85	8
86	7
87	10
88	6
89	22
90	5
91	8
102	14
103	5
113	9
114	9
115	152
116	19
139	43
140	12
141	200
142	83
143	8
144	8
151	5
152	8
153	7
155	10
168	32
169	337
170	999
171	130
172	10
