Mass spectrum: 2-TERT-BUTYLCYCLOHEXYL ACETATE; EI-MS
Name: 2-(1,1-DIMETHYLETHYL)CYCLOHEXYL ACETATE
Formula: C12H22O2
Exact mass: 198.16198
Instrument type: EI-MS
m/z	relative intensity
15	27
27	57
28	20
29	144
39	77
40	11
41	312
42	24
43	625
44	16
53	47
54	97
55	129
56	74
57	999
58	49
61	144
67	404
68	24
69	62
70	19
71	15
77	16
79	27
80	129
81	173
82	788
83	113
95	43
99	22
117	51
123	131
124	11
138	21
141	15
142	10
