Mass spectrum: METHYL 9,10-BIS(TERT-BUTYLDIMETHYLSILOXY)OCTADEC-12(Z)-ENOATE; EI-MS
Formula: C31H64O4Si2
Exact mass: 556.43431
Instrument type: EI-MS
m/z	relative intensity
540	23
550	199
560	23
570	55
590	114
670	187
680	21
690	162
710	18
730	999
740	113
750	286
760	20
770	20
790	41
810	147
820	18
830	48
850	29
890	167
910	25
930	38
950	105
970	27
990	30
1010	41
1070	37
1090	104
1130	17
1150	106
1170	19
1190	20
1210	35
1230	55
1250	23
1290	17
1310	26
1330	124
1340	19
1350	23
1370	44
1390	16
1450	23
1470	546
1480	95
1490	116
1550	145
1560	17
1630	143
1640	24
1650	19
1710	42
1850	18
1890	191
1900	39
1910	22
1970	19
2050	16
2190	65
2430	67
2540	42
2550	335
2560	78
2570	26
2790	26
2930	92
2940	19
3010	452
3020	118
3030	33
3130	162
3140	39
3290	27
3750	31
4450	62
4460	24
4990	106
5000	42
5010	17
