Mass spectrum: 2-BUTYL-1,1-DIMETHYLHYDRAZINE; EI-MS
Formula: C6H16N2
Exact mass: 116.13135
Instrument type: EI-MS
m/z	relative intensity
28	44
29	40
30	65
32	2
39	12
40	3
41	35
42	7
43	47
44	81
45	65
46	3
55	3
56	4
57	21
58	1
59	999
60	29
71	7
72	1
73	180
74	9
101	10
116	18
117	19
