Mass spectrum: CYCLOHEXYL ACETATE; EI-MS
Formula: C8H14O2
Exact mass: 142.09938
Instrument type: EI-MS
m/z	relative intensity
15	54
27	98
28	33
29	71
39	114
40	15
41	182
42	60
43	999
44	51
53	31
54	161
55	164
56	17
57	74
58	66
59	11
61	69
67	443
68	25
71	27
79	11
81	61
82	615
83	87
99	32
100	31
