Mass spectrum: ANETHOL; EI-MS
Formula: C10H12O
Exact mass: 148.08882
Instrument type: EI-MS
m/z	relative intensity
40	15
41	30
50	70
51	115
52	55
53	40
55	60
61	15
62	30
63	95
64	25
65	85
66	15
74	35
75	35
76	35
77	270
78	110
79	170
80	30
87	25
89	55
90	25
91	155
92	35
93	25
101	15
102	45
103	155
104	55
105	265
106	35
107	25
115	130
116	65
117	230
118	35
119	25
120	15
121	185
122	25
131	40
132	40
133	245
134	35
135	25
146	35
147	365
148	999
149	110
150	15
