Mass spectrum: 2-CHLOROPROPANE; EI-MS
Formula: C3H7Cl
Exact mass: 78.02363
Instrument type: EI-MS
m/z	relative intensity
15	12
26	21
27	254
28	53
29	23
37	18
38	26
39	88
40	29
41	199
42	53
43	999
44	40
55	26
57	42
62	22
63	210
64	12
65	68
78	156
79	10
80	51
81	10
