Mass spectrum: TRIETHYL PHOSPHITE; EI-MS
Formula: C6H15O3P
Exact mass: 166.07588
Instrument type: EI-MS
m/z	relative intensity
27	24
28	39
29	523
30	12
31	21
43	19
45	126
65	719
66	73
76	22
81	345
82	999
83	713
84	17
91	87
92	22
93	261
94	71
95	10
109	115
110	73
111	414
121	148
122	79
138	19
139	208
166	111
167	9
