Mass spectrum: 3-METHOXY-4-HYDROXYMANDELONITRILE; EI-MS
Formula: C9H9NO3
Exact mass: 179.05824
Instrument type: EI-MS
m/z	relative intensity
26	102
27	936
29	49
39	84
50	47
51	107
52	108
53	126
55	25
62	27
63	50
65	82
67	17
77	46
79	44
80	30
81	216
93	31
95	12
108	64
109	151
110	16
119	9
123	195
124	24
136	14
137	68
147	17
151	981
152	999
153	98
162	71
179	51
