Mass spectrum: ETHYL 3-PYRIDYL KETONE; EI-MS
Name: 1-(3-PYRIDYL)-1-PROPANONE
Formula: C8H9NO
Exact mass: 135.06841
Instrument type: EI-MS
m/z	relative intensity
27	11
29	148
31	48
39	63
40	10
41	23
42	13
43	51
50	159
51	400
52	12
53	22
63	19
64	10
65	14
77	16
78	706
79	69
93	18
105	39
106	999
107	72
135	192
136	17
