Mass spectrum: CROTONIC ACID METHYL ESTER; EI-MS
Name: 2-BUTENOIC ACID METHYL ESTER
Formula: C5H8O2
Exact mass: 100.05243
Instrument type: EI-MS
m/z	relative intensity
15	117
26	14
27	24
28	18
29	24
37	21
38	45
39	295
40	46
41	489
42	24
59	48
68	32
69	999
70	45
85	186
100	190
101	11
