Mass spectrum: ACETALDEHYDE DIISOAMYL ACETAL; EI-MS
Formula: C12H26O2
Exact mass: 202.19328
Instrument type: EI-MS
m/z	relative intensity
27	79
29	86
31	29
39	58
41	164
42	63
43	611
44	40
45	72
53	11
55	136
56	15
57	16
69	14
70	67
71	999
72	68
99	11
115	459
116	39
187	73
