Mass spectrum: N-ISOPROPYLACETAMIDE; EI-MS
Name: ACETYLAMINOISOPROPANE
Formula: C5H11NO
Exact mass: 101.08406
Instrument type: EI-MS
m/z	relative intensity
30	20
42	21
43	42
44	999
45	23
57	24
58	72
60	52
72	23
73	12
86	418
87	18
101	456
102	54
