Mass spectrum: 4,4A,5,6,7,8-HEXAHYDRO-4A-METHYL-2(3H)-NAPHTHALENONE; EI-MS
Formula: C11H16O
Exact mass: 164.12012
Instrument type: EI-MS
m/z	relative intensity
28	84
29	15
41	32
43	2
45	13
53	23
54	11
55	5
65	12
66	17
67	86
68	3
69	16
77	21
79	275
81	14
82	60
83	35
91	88
92	3
93	275
94	162
95	60
96	2
97	15
105	45
106	20
107	49
108	239
109	48
110	19
117	2
118	21
119	13
120	19
121	46
122	999
123	116
124	12
128	1
131	32
133	13
134	13
135	11
136	859
137	99
138	16
145	1
146	25
149	135
150	15
163	1
164	887
165	116
