Mass spectrum: 4',6,7-TRIMETHOXYFLAVONOL; EI-MS
Name: 3-HYDROXY-6,7-DIMETHOXY-2-(4-METHOXYPHENYL)-4H-CHROMEN-4-ONE
Formula: C18H16O6
Exact mass: 328.09469
Instrument type: EI-MS
m/z	relative intensity
50	32
51	57
53	34
63	4
64	27
65	24
69	77
76	4
77	173
78	22
79	47
92	10
93	39
105	31
107	37
119	2
121	52
135	294
137	25
164	5
285	49
313	128
327	24
328	999
329	160
