Mass spectrum: 2-ETHOXY-1-ETHOXYCARBONYL-1,2-DIHYDROQUINOLINE; EI-MS
Formula: C14H17NO3
Exact mass: 247.12084
Instrument type: EI-MS
m/z	relative intensity
29	93
102	13
103	19
117	18
118	22
128	55
129	165
130	999
131	102
143	35
146	34
158	345
159	44
174	21
202	863
203	116
204	11
247	85
248	13
