Mass spectrum: 1-ACETYL-2-METHYL-6-NITROINDOLIZINE; EI-MS
Formula: C11H10N2O3
Exact mass: 218.06914
Instrument type: EI-MS
m/z	relative intensity
41	107
42	12
43	281
44	4
45	73
50	26
51	73
52	3
53	13
55	101
56	24
57	17
60	51
63	31
65	14
68	2
69	231
70	23
71	84
73	5
75	18
76	37
77	113
78	8
79	12
81	73
82	15
83	4
84	14
85	39
89	12
91	2
95	20
97	33
101	23
102	8
103	43
107	62
109	11
111	1
115	23
116	10
117	28
128	6
129	107
130	46
136	51
137	1
142	28
143	46
144	35
145	1
149	16
157	467
158	21
171	3
172	84
173	14
203	875
204	5
218	999
219	73
