Mass spectrum: CHLORAL BETAINE; EI-MS
Formula: C7H14Cl3NO4
Exact mass: 280.99884
Instrument type: EI-MS
m/z	relative intensity
34	49
35	64
36	19
37	3
39	11
40	9
41	9
42	1
43	11
44	14
45	9
46	48
47	99
48	89
49	29
50	1
55	1
56	4
57	4
58	1
59	19
60	4
61	9
62	1
63	4
64	34
66	14
68	0
69	4
70	1
75	14
76	0
77	6
78	1
81	999
82	22
83	579
84	159
85	94
86	3
87	1
92	9
93	5
94	0
95	1
109	119
110	319
111	10
112	219
113	19
114	39
115	0
116	119
117	129
118	99
119	9
120	34
121	39
122	9
123	1
124	1
125	1
126	8
127	0
128	2
145	84
146	9
147	9
148	9
149	29
150	4
151	1
164	1
165	4
166	1
194	0
195	5
196	9
197	1
198	0
209	4
210	4
