Mass spectrum: BENZOIC ACID TERT-BUTYL ESTER; EI-MS
Name: TERT-BUTYL BENZOATE
Formula: C11H14O2
Exact mass: 178.09938
Instrument type: EI-MS
m/z	relative intensity
29	40
41	103
56	312
57	569
58	26
77	115
78	33
79	33
105	671
106	55
122	67
123	999
124	79
163	7
178	10
