Mass spectrum: CYCLOOCTANE; EI-MS
Formula: C8H16
Exact mass: 112.1252
Instrument type: EI-MS
m/z	relative intensity
15	19
26	21
27	316
28	89
29	269
38	14
39	361
40	66
41	952
42	616
43	439
44	16
50	12
51	28
52	14
53	84
54	110
55	881
56	999
57	160
65	16
67	115
68	215
69	556
70	633
71	79
79	12
81	17
82	117
83	515
84	391
85	26
97	91
112	640
113	56
