Mass spectrum: ALLYL CINNAMATE; EI-MS
Name: 2-PROPENYL 3-PHENYLPROPENOATE
Formula: C12H12O2
Exact mass: 188.08373
Instrument type: EI-MS
m/z	relative intensity
26	20
27	77
29	33
38	19
39	181
41	170
50	77
51	221
52	26
53	12
55	14
62	13
63	34
69	27
74	27
75	32
76	58
77	467
78	38
91	58
97	21
101	14
102	130
103	599
104	395
105	45
115	13
116	16
128	50
129	83
130	13
131	999
132	115
133	14
141	10
142	37
143	156
144	21
147	50
173	27
188	120
189	15
