Mass spectrum: ISOPRENE; EI-MS
Formula: C5H8
Exact mass: 68.0626
Instrument type: EI-MS
m/z	relative intensity
27	155
28	30
29	25
39	25
40	354
41	275
42	191
51	4
52	51
53	824
54	42
65	7
66	70
67	999
68	994
69	57
