Mass spectrum: 2-BUTANOL; EI-MS
Name: SEC-BUTYL ALCOHOL
Formula: C4H10O
Exact mass: 74.07316
Instrument type: EI-MS
m/z	relative intensity
15	34
19	48
26	25
27	14
28	53
29	72
31	203
39	4
41	127
43	99
44	100
45	999
59	215
73	15
74	6
