Mass spectrum: PROPYLBENZENE; EI-MS
Formula: C9H12
Exact mass: 120.0939
Instrument type: EI-MS
m/z	relative intensity
27	31
29	13
39	71
41	22
50	20
51	58
52	13
63	33
65	109
77	40
78	65
79	12
89	21
91	999
92	104
103	10
105	28
120	215
121	18
