Mass spectrum: 1,4-BIS(MERCAPTOMETHYL)-2,5-DIMETHOXYBENZENE; EI-MS
Formula: C10H14O2S2
Exact mass: 230.04352
Instrument type: EI-MS
m/z	relative intensity
134	49
151	288
164	194
197	999
198	156
199	78
230	905
231	12
232	104
233	35
