Mass spectrum: PENTYL BENZOATE; EI-MS
Name: BENZOIC ACID PENTYL ESTER
Formula: C12H16O2
Exact mass: 192.11503
Instrument type: EI-MS
m/z	relative intensity
27	40
29	45
39	40
41	96
42	154
43	63
50	47
51	208
52	13
55	202
69	42
70	370
71	21
76	31
77	640
78	51
79	108
105	999
106	80
122	178
123	854
124	64
192	11
