Mass spectrum: P-PROPYLPHENOL; EI-MS
Formula: C9H12O
Exact mass: 136.08882
Instrument type: EI-MS
m/z	relative intensity
27	54
29	19
39	64
41	16
50	14
51	46
52	20
53	33
55	16
63	21
65	27
77	130
78	42
79	19
91	19
94	11
107	999
108	78
136	194
137	16
