Mass spectrum: 4-IODONITROBENZENE; EI-MS
Formula: C6H4INO2
Exact mass: 248.92867
Instrument type: EI-MS
m/z	relative intensity
30	47
46	15
50	103
63	26
64	47
73	12
74	67
75	72
76	332
77	26
92	103
127	51
191	122
203	172
204	17
219	232
220	22
233	76
249	999
250	80
