Mass spectrum: GAMMA-TERPINENE; EI-MS
Name: 1-METHYL-4-(1-METHYLETHYL)-1,4-CYCLOHEXADIENE
Formula: C10H16
Exact mass: 136.1252
Instrument type: EI-MS
m/z	relative intensity
77	146
79	130
92	213
93	999
105	56
107	67
119	35
121	294
136	362
137	37
