Mass spectrum: DI-ISODECYL PHTHALATE; EI-MS
Formula: C28H46O4
Exact mass: 446.33961
Instrument type: EI-MS
m/z	relative intensity
53	15
54	203
55	112
56	374
57	18
65	18
67	31
68	2
69	172
70	129
71	276
72	2
76	31
77	20
81	18
82	2
83	93
84	78
85	223
86	2
91	20
93	15
96	16
97	5
98	30
99	62
101	24
104	3
105	28
111	43
112	39
113	2
121	20
123	15
125	18
140	5
141	233
142	28
149	999
150	9
151	15
167	218
168	20
205	2
223	26
279	54
289	39
290	2
307	659
308	135
309	20
446	2
447	28
