Mass spectrum: GEIPARVARIN; EI-MS
Formula: C19H18O5
Exact mass: 326.11542
Instrument type: EI-MS
m/z	relative intensity
41	356
43	155
51	116
67	125
69	999
77	267
78	130
79	146
109	272
134	155
137	215
162	203
165	593
326	178
