Mass spectrum: DODECANEDIOIC ACID BIS(TRIMETHYLSILYL) EST; EI-MS
Name: ERDI(TRIMETHYLSILYL) DODECANEDIOATE
Formula: C18H38O4Si2
Exact mass: 374.23086
Instrument type: EI-MS
m/z	relative intensity
45	125
55	311
67	109
73	999
74	105
75	853
81	132
83	16
117	267
129	233
147	146
149	19
204	107
217	160
243	135
359	26
360	70
