Mass spectrum: 1,3,5-TRICHLOROBENZENE; EI-MS
Formula: C6H3Cl3
Exact mass: 179.93003
Instrument type: EI-MS
m/z	relative intensity
28	27
37	30
50	43
54	2
55	24
72	63
73	77
74	12
75	69
84	35
90	63
91	6
109	127
110	30
111	38
145	23
146	30
147	142
149	29
180	999
181	69
182	970
183	63
184	32
185	20
186	32
