Mass spectrum: BENZYLOXYTRIETHYLSILANE; EI-MS
Formula: C13H22OSi
Exact mass: 222.14399
Instrument type: EI-MS
m/z	relative intensity
42	24
44	29
59	44
65	57
69	27
75	21
83	51
87	42
91	553
92	50
97	17
135	150
136	23
163	279
164	48
165	76
193	999
194	185
195	55
222	1
