Mass spectrum: ALPHA-PHELLANDRENE; EI-MS
Name: 2-METHYL-5-(1-METHYLETHYL)-1,3-CYCLOHEXADIENE
Formula: C10H16
Exact mass: 136.1252
Instrument type: EI-MS
m/z	relative intensity
41	10
43	20
77	155
78	16
79	30
80	15
91	238
92	302
93	999
94	82
105	12
121	25
136	316
137	34
