Mass spectrum: N,N-DIISOBUTYLNITROSOAMINE; EI-MS
Formula: C8H18N2O
Exact mass: 158.14191
Instrument type: EI-MS
m/z	relative intensity
54	23
55	217
56	310
57	999
58	39
70	46
72	30
73	84
84	356
85	59
86	54
103	23
115	33
