Mass spectrum: 5-OCTYLPYRIDINE-2-CARBOXYLIC ACID; EI-MS
Formula: C14H21NO2
Exact mass: 235.15723
Instrument type: EI-MS
m/z	relative intensity
50	161
51	267
52	200
53	14
54	23
55	270
56	51
57	71
58	42
63	71
64	100
65	55
66	91
76	23
77	184
78	17
79	210
80	98
91	301
92	61
93	999
94	108
104	87
105	13
106	884
117	35
118	50
119	41
120	33
132	120
133	61
134	6
135	111
136	120
137	574
138	5
146	45
148	142
149	50
150	83
151	121
162	67
163	75
164	8
174	21
175	30
176	30
178	3
179	10
190	70
191	75
192	9
206	50
207	21
217	40
234	6
235	100
236	11
