Mass spectrum: 9-METHOXY-6,6,9-TRIMETHYL-5ALPHA,8BETA-TRICYCLO(6.3.0.0(1,5))UNDECAN-2-ONE; EI-MS
Formula: C15H24O2
Exact mass: 236.17763
Instrument type: EI-MS
m/z	relative intensity
57	21
72	362
73	411
85	999
86	47
94	81
110	80
136	11
149	34
150	258
151	55
152	4
164	62
165	221
166	21
189	2
204	216
205	70
206	960
207	35
209	21
221	164
222	29
236	37
