Mass spectrum: 3-METHYLCYCLOHEXANONE; EI-MS
Formula: C7H12O
Exact mass: 112.08882
Instrument type: EI-MS
m/z	relative intensity
15	21
26	21
27	170
28	57
29	81
38	21
39	225
40	56
41	443
42	251
43	56
50	11
51	20
53	39
54	17
55	241
56	449
57	35
67	30
68	100
69	999
70	79
71	16
79	38
81	12
83	31
84	46
94	76
97	121
112	308
113	25
