Mass spectrum: TETRAHYDROLINALOOL; EI-MS
Name: 3,7-DIMETHYL-3-OCTANOL
Formula: C10H22O
Exact mass: 158.16707
Instrument type: EI-MS
m/z	relative intensity
27	54
28	11
29	109
31	17
39	37
41	106
42	12
43	206
45	55
53	14
55	209
56	15
57	65
58	41
59	18
69	264
70	43
71	42
72	31
73	999
74	47
83	46
85	12
111	61
129	148
130	11
143	47
