Mass spectrum: 1-NONANOL; EI-MS
Formula: C9H20O
Exact mass: 144.15142
Instrument type: EI-MS
m/z	relative intensity
40	51
41	999
42	456
43	89
44	81
45	133
51	10
53	4
54	57
55	683
56	751
57	27
58	23
59	15
65	4
67	5
68	121
69	350
70	383
71	7
73	36
79	5
81	9
82	5
83	148
84	103
85	18
87	1
89	9
96	10
97	90
98	9
99	7
103	3
105	5
111	0
126	3
