Mass spectrum: MESITYLALDEHYDE; EI-MS
Name: 2,4,6-TRIMETHYLBENZALDEHYDE
Formula: C10H12O
Exact mass: 148.08882
Instrument type: EI-MS
m/z	relative intensity
38	33
39	183
40	33
41	120
50	59
51	155
52	49
53	59
57	25
61	13
62	30
63	96
64	27
65	104
66	25
73	22
74	28
75	26
76	17
77	196
78	79
79	74
89	34
91	296
92	25
93	25
102	24
103	89
104	48
105	196
106	25
115	89
116	25
117	99
119	715
120	104
147	999
148	722
149	67
