Mass spectrum: HEXANEDIOIC ACID BIS(TRIMETHYLSILYL) ESTER; EI-MS
Name: BIS(TRIMETHYLSILYL) ADIPATE
Formula: C12H26O4Si2
Exact mass: 290.13696
Instrument type: EI-MS
m/z	relative intensity
45	90
47	126
55	297
73	999
74	106
75	685
83	230
111	89
117	159
129	113
141	443
147	54
149	124
159	181
172	208
185	17
217	104
275	339
276	59
