Mass spectrum: 1,2-BENZENEDICARBOXYLIC ACID METHYL OCTYLESTER; EI-MS
Name: METHYLOCTYL PHTHALATE
Formula: C17H24O4
Exact mass: 292.16746
Instrument type: EI-MS
m/z	relative intensity
4	29
29	30
39	4
41	50
42	24
43	60
44	4
54	12
55	117
56	122
57	86
58	2
65	5
67	8
68	17
69	84
70	110
71	46
72	2
76	11
77	93
78	8
79	11
81	3
82	13
83	62
84	53
85	5
91	42
92	101
93	17
97	7
104	46
105	92
106	10
107	2
108	2
109	5
110	1
111	4
112	38
113	7
118	7
119	2
120	13
121	17
122	11
123	26
132	14
133	35
134	7
135	104
136	57
137	6
147	29
149	916
150	166
151	20
152	1
163	999
164	302
165	36
166	2
176	8
177	1
179	2
181	412
182	47
183	7
207	2
208	9
221	1
233	4
249	3
261	17
262	3
293	87
295	12
296	2
