Mass spectrum: 3-TETRADECANONE; EI-MS
Formula: C14H28O
Exact mass: 212.21402
Instrument type: EI-MS
m/z	relative intensity
41	405
43	531
55	247
57	985
72	999
73	306
83	58
85	306
95	63
99	41
109	40
114	17
123	14
183	331
184	45
212	27
