Mass spectrum: ISOBUTYL SALICYLATE; EI-MS
Formula: C11H14O3
Exact mass: 194.09429
Instrument type: EI-MS
m/z	relative intensity
29	122
39	10
41	125
56	17
57	157
65	55
92	167
93	38
120	999
121	275
122	20
138	291
194	112
195	10
