Mass spectrum: BENZYLTRIMETHYLAMMONIUM CHLORIDE; EI-MS
Formula: C10H16ClN
Exact mass: 185.09713
Instrument type: EI-MS
m/z	relative intensity
15	41
18	26
30	69
36	11
42	241
44	76
50	83
58	862
59	224
65	297
77	21
79	20
91	999
92	235
126	345
134	169
135	328
150	3
212	30
