Mass spectrum: N-ETHYLDODECANAMIDE; EI-MS
Formula: C14H29NO
Exact mass: 227.22491
Instrument type: EI-MS
m/z	relative intensity
26	4
27	46
28	37
29	12
30	80
31	4
32	9
38	0
39	25
40	8
41	128
42	4
43	130
44	120
45	28
46	6
47	2
51	1
52	1
53	1
54	9
55	98
56	21
57	7
58	28
59	13
60	13
61	0
65	3
66	2
67	11
68	1
69	30
70	12
71	25
72	26
73	98
74	11
75	2
76	0
77	3
78	2
79	3
80	0
81	9
82	5
83	16
84	2
85	17
86	29
87	999
88	5
89	4
91	2
92	1
93	0
94	1
95	8
96	3
97	1
98	18
99	4
100	220
101	4
102	4
107	1
108	1
109	0
110	2
111	4
112	4
113	0
114	46
115	14
116	2
123	0
124	1
126	2
127	2
128	2
129	12
130	1
140	1
141	2
142	38
143	7
144	1
149	0
150	1
151	1
152	1
153	0
154	3
155	10
156	27
157	1
158	1
165	2
166	1
167	0
168	1
169	4
170	12
171	0
172	1
181	1
182	2
183	2
184	21
185	5
186	1
197	0
198	14
199	3
200	4
201	0
210	1
211	1
212	5
213	0
214	1
223	1
224	1
225	0
226	7
227	34
228	7
229	1
