Mass spectrum: CIS-3-HEXENYL CROTONATE; EI-MS
Name: CIS-3-HEXENYL TRANS-2-BUTENOATE
Formula: C10H16O2
Exact mass: 168.11503
Instrument type: EI-MS
m/z	relative intensity
27	88
29	44
38	15
39	304
40	18
41	485
42	38
51	11
53	46
54	65
55	75
67	573
68	46
69	999
70	45
81	42
82	622
83	40
87	38
