Mass spectrum: 4-BENZYLOXY-2-METHYL-1-BUTEN-3-ONE; EI-MS
Name: BENZYL METHACRYLOYLMETHYL ETHER
Formula: C12H14O2
Exact mass: 190.09938
Instrument type: EI-MS
m/z	relative intensity
27	12
28	35
29	10
39	10
41	334
42	16
43	20
50	1
51	34
63	23
65	123
69	53
70	24
77	30
79	12
84	63
85	64
89	55
90	14
91	999
92	88
105	23
107	77
