Mass spectrum: O-ISOBUTYLHYDROXYLAMINE; EI-MS
Formula: C4H11NO
Exact mass: 89.08406
Instrument type: EI-MS
m/z	relative intensity
39	273
40	40
41	787
42	27
43	999
44	93
45	33
46	1
47	10
50	7
51	10
53	3
54	7
55	240
56	200
57	5
58	67
59	14
60	10
69	1
70	87
71	240
72	33
73	0
74	20
75	7
89	7
