Mass spectrum: TETRAETHYL-2-TETRAZENE; EI-MS
Formula: C8H20N4
Exact mass: 172.1688
Instrument type: EI-MS
m/z	relative intensity
27	114
28	102
29	537
30	5
31	19
41	16
42	108
43	5
44	999
45	27
56	54
57	4
58	63
59	45
70	10
71	1
72	71
73	8
87	33
100	3
157	2
172	422
173	43
