Mass spectrum: 2-HEPTYLTHIOPHENE; EI-MS
Formula: C11H18S
Exact mass: 182.11292
Instrument type: EI-MS
m/z	relative intensity
27	10
29	41
39	10
41	49
43	128
45	20
53	30
55	30
67	20
69	10
84	80
85	61
86	10
87	10
96	18
97	999
98	598
99	180
100	40
109	10
110	19
111	161
112	17
113	11
119	10
123	10
125	10
139	55
149	10
153	22
154	12
182	282
183	42
184	11
