Mass spectrum: DIMETHYL MALONATE; EI-MS
Formula: C5H8O4
Exact mass: 132.04226
Instrument type: EI-MS
m/z	relative intensity
14	50
15	428
27	54
29	269
30	31
31	54
41	52
42	450
43	229
44	12
45	141
57	262
58	51
59	999
60	15
69	107
74	469
75	12
100	36
101	967
102	37
104	22
132	26
