Mass spectrum: ETHYL FORMATE; EI-MS
Formula: C3H6O2
Exact mass: 74.03678
Instrument type: EI-MS
m/z	relative intensity
14	52
15	66
16	107
17	135
27	449
28	581
29	477
31	999
42	28
43	97
45	345
56	59
57	27
70	26
71	22
74	31
