Mass spectrum: ALLYLCYANIDE; EI-MS
Name: 1-CYANO-2-PROPENE
Formula: C4H5N
Exact mass: 67.0422
Instrument type: EI-MS
m/z	relative intensity
26	45
27	204
28	42
325	12
37	87
38	123
39	375
40	237
41	999
42	28
50	12
51	23
52	74
62	11
63	27
64	71
65	21
66	152
67	506
68	104
