Mass spectrum: 2-CHLOROPHENYL ACETATE; EI-MS
Formula: C8H7ClO2
Exact mass: 170.01346
Instrument type: EI-MS
m/z	relative intensity
38	39
39	72
41	43
42	3
43	588
44	54
50	28
55	4
57	43
62	21
63	101
64	12
65	46
69	25
71	25
73	6
75	39
92	64
94	39
99	5
101	18
128	999
129	72
130	32
131	28
149	25
162	21
170	17
172	46
