Mass spectrum: BUTYLMETHYLSILANE; EI-MS
Formula: C5H14Si
Exact mass: 102.08648
Instrument type: EI-MS
m/z	relative intensity
27	68
28	37
29	39
31	3
32	12
39	39
41	88
42	3
43	195
44	110
45	876
46	6
47	30
53	18
55	28
56	20
57	25
58	95
59	306
60	3
61	13
70	10
71	29
72	23
73	999
74	106
75	35
85	4
86	13
87	27
100	130
101	6
102	55
103	10
