Mass spectrum: TORULOSOL; EI-MS
Formula: C20H34O2
Exact mass: 306.25588
Instrument type: EI-MS
m/z	relative intensity
27	20
29	30
31	20
39	4
41	120
43	150
53	60
55	2
56	5
57	40
65	20
67	13
68	30
69	90
70	5
71	2
77	55
79	140
80	80
81	27
82	30
83	40
84	5
91	1
92	55
93	350
94	180
95	4
96	60
97	90
105	190
106	7
107	350
108	90
109	380
110	0
111	80
116	5
117	40
118	2
119	190
120	105
121	370
122	1
123	300
124	90
125	70
126	0
127	20
131	70
133	215
134	15
135	290
136	90
137	70
138	0
139	20
143	15
144	15
145	1
146	40
147	230
148	190
149	22
150	50
151	85
152	40
153	4
154	40
157	20
159	90
160	0
161	270
162	60
163	150
164	2
165	30
166	19
171	5
172	2
173	115
174	40
175	310
176	11
177	288
178	50
179	25
184	3
185	25
187	205
188	60
189	4
190	85
191	80
192	40
193	2
199	10
200	10
201	135
202	1
203	50
204	10
205	70
206	1
207	70
208	30
213	10
214	0
215	50
216	15
217	38
218	0
219	60
220	290
221	55
227	0
229	50
230	30
231	20
232	0
233	15
241	40
242	10
243	8
244	10
245	168
246	60
247	0
248	20
255	88
256	35
257	999
258	240
259	100
260	115
261	1
263	25
270	70
271	15
273	23
274	50
275	85
276	25
277	0
298	250
299	55
301	15
306	15
