Mass spectrum: BIS(PHENYLTHIO)METHANE; EI-MS
Formula: C13H12S2
Exact mass: 232.03804
Instrument type: EI-MS
m/z	relative intensity
45	827
46	28
47	41
50	59
51	268
52	22
58	15
63	28
65	137
66	25
69	66
77	254
78	36
79	105
82	17
91	41
97	15
108	23
109	98
110	32
121	31
123	999
124	85
125	47
232	108
233	16
