Mass spectrum: 2-ETHOXYETHYL ACETATE; EI-MS
Name: ACETIC ACID 2-ETHOXYETHYL ESTER
Formula: C6H12O3
Exact mass: 132.07864
Instrument type: EI-MS
m/z	relative intensity
15	77
26	16
27	101
28	35
29	176
31	349
41	17
42	42
43	999
44	202
45	105
58	19
59	385
60	15
61	34
72	333
73	42
74	18
87	84
88	64
89	13
