Mass spectrum: HEXANOL; EI-MS
Formula: C6H14O
Exact mass: 102.10447
Instrument type: EI-MS
m/z	relative intensity
41	319
42	424
43	627
44	99
54	27
55	433
56	999
57	299
69	27
71	27
82	39
84	90
