Mass spectrum: CIS-2-METHYLCHROMAN-4-OL; EI-MS
Formula: C10H12O2
Exact mass: 164.08373
Instrument type: EI-MS
m/z	relative intensity
91	20
92	5
93	7
94	3
95	30
103	7
104	50
105	3
107	33
108	7
119	160
120	4
121	370
122	640
123	187
124	1
131	660
132	60
133	20
145	10
146	230
147	50
148	30
149	1
150	10
162	10
163	120
164	999
165	113
166	10
