Mass spectrum: PARA-METHOXYTOLUENE; EI-MS
Formula: C8H10O
Exact mass: 122.07316
Instrument type: EI-MS
m/z	relative intensity
39	13
53	23
65	26
77	175
78	42
79	197
80	16
90	11
91	144
92	70
93	13
107	244
108	21
120	11
121	302
122	999
123	92
