Mass spectrum: 2-(2-AMINO-2-METHYLPROPYL)INDOLE; EI-MS
Formula: C12H16N2
Exact mass: 188.13135
Instrument type: EI-MS
m/z	relative intensity
42	61
43	17
57	22
58	999
59	35
77	42
103	25
130	13
131	155
188	79
