Mass spectrum: PARA-TOLYLACETIC ACID METHYL ESTER; EI-MS
Formula: C10H12O2
Exact mass: 164.08373
Instrument type: EI-MS
m/z	relative intensity
38	18
39	57
50	42
51	11
52	45
53	24
62	21
63	4
65	33
66	12
76	18
77	22
78	91
79	179
80	18
89	2
91	33
102	21
103	155
104	9
105	999
106	212
107	18
115	2
119	18
121	12
132	30
133	3
149	15
164	647
165	72
166	12
