Mass spectrum: SEC-BUTYL BROMIDE; EI-MS
Formula: C4H9Br
Exact mass: 135.98876
Instrument type: EI-MS
m/z	relative intensity
27	25
28	17
29	329
39	2
41	392
42	18
55	30
56	8
57	999
58	45
136	11
138	11
