Mass spectrum: DIHYDRO-BETA-IONONE; EI-MS
Formula: C13H22O
Exact mass: 194.16707
Instrument type: EI-MS
m/z	relative intensity
27	66
28	27
29	72
39	12
40	24
41	279
42	30
43	6
44	18
45	9
51	36
52	2
53	117
54	15
55	177
56	2
57	30
58	12
63	12
65	7
66	21
67	123
68	27
69	13
70	12
71	84
77	150
78	0
79	216
80	48
81	248
82	5
83	30
91	186
92	45
93	34
94	57
95	267
96	39
97	2
103	15
105	168
106	69
107	17
108	54
109	159
110	18
111	1
119	228
120	60
121	999
122	11
123	363
124	57
125	15
133	4
135	33
136	363
137	72
138	0
151	12
161	432
162	60
163	1
176	207
177	33
179	213
180	0
194	147
195	20
196	5
