Mass spectrum: 2-ISOBUTYLTHIAZOLE; EI-MS
Formula: C7H11NS
Exact mass: 141.06122
Instrument type: EI-MS
m/z	relative intensity
27	89
28	16
29	49
39	39
41	41
42	239
43	310
44	10
45	30
54	90
55	10
56	10
57	29
58	490
59	182
60	20
86	10
98	105
99	999
100	105
101	84
126	200
140	30
141	21
