Mass spectrum: METHOXYACETALDEHYDE DIMETHYL ACETAL; EI-MS
Formula: C5H12O3
Exact mass: 120.07864
Instrument type: EI-MS
m/z	relative intensity
15	67
27	13
29	110
31	169
42	15
43	60
45	146
47	186
58	22
59	162
73	11
74	13
75	999
76	38
89	150
