Mass spectrum: METHYL 4-METHYLPHENYL KETONE; EI-MS
Name: 4-METHYLACETOPHENONE
Formula: C9H10O
Exact mass: 134.07316
Instrument type: EI-MS
m/z	relative intensity
27	20
28	50
32	11
38	2
39	110
41	20
42	10
43	10
50	37
51	60
52	13
62	4
63	90
64	25
65	204
66	1
74	13
75	10
77	32
79	1
89	80
90	40
91	606
92	5
103	10
105	17
119	999
120	8
134	562
135	58
