Mass spectrum: DIFURFURYL ETHER; EI-MS
Formula: C10H10O3
Exact mass: 178.06299
Instrument type: EI-MS
m/z	relative intensity
27	97
29	29
38	22
39	114
41	65
42	11
50	18
51	37
52	31
53	237
54	60
69	56
80	16
81	999
82	468
83	27
95	50
96	15
97	92
110	35
178	75
