Mass spectrum: CIS-BICYCLO(4.3.0)NONANE; EI-MS
Name: CIS-HEXAHYDROINDANE
Formula: C9H16
Exact mass: 124.1252
Instrument type: EI-MS
m/z	relative intensity
26	25
27	368
28	478
29	279
31	29
32	87
39	470
40	94
41	619
42	73
43	50
44	46
51	58
52	24
53	177
54	377
55	365
56	31
65	43
66	131
67	996
68	363
69	65
77	54
79	114
80	42
81	999
82	957
83	91
91	14
95	235
96	799
97	66
124	224
125	23
