Mass spectrum: 1,6-DIAMINOHEXANE; EI-MS
Name: HEXAMETHYLENEDIAMINE
Formula: C6H16N2
Exact mass: 116.13135
Instrument type: EI-MS
m/z	relative intensity
27	25
28	116
29	17
30	999
31	31
39	21
41	46
42	45
43	25
44	35
45	30
55	25
56	120
59	18
69	21
70	36
72	15
82	16
86	35
87	93
99	12
100	21
