Mass spectrum: 2-METHYL-5-(1-OCTYNYL)PYRIDINE; EI-MS
Formula: C14H19N
Exact mass: 201.15175
Instrument type: EI-MS
m/z	relative intensity
38	17
39	173
40	29
41	27
42	52
43	219
50	58
51	15
52	52
53	23
55	75
57	1
62	41
63	212
64	46
65	9
66	24
67	69
68	14
74	3
75	53
76	87
77	424
78	9
79	52
80	21
81	14
87	2
88	23
89	110
90	75
91	11
92	39
93	46
94	27
95	6
101	39
102	115
103	148
104	9
105	37
106	303
107	98
114	4
115	144
116	87
117	443
118	9
119	115
120	110
121	33
127	3
128	87
129	69
130	693
131	33
132	846
133	127
134	19
141	3
142	57
143	173
144	520
145	23
146	73
156	58
157	154
158	999
159	308
160	63
170	40
171	4
172	385
173	81
187	84
198	6
200	16
201	314
202	52
