Mass spectrum: NICOTINE; EI-MS
Name: 3-(1-METHYL-2-PYRROLIDINYL)PYRIDINE
Formula: C10H14N2
Exact mass: 162.1157
Instrument type: EI-MS
m/z	relative intensity
41	16
42	188
43	17
44	42
55	61
56	10
57	11
65	32
77	10
78	25
79	15
80	10
81	20
82	58
83	23
84	999
85	168
91	19
92	92
93	24
104	16
105	30
106	26
107	18
117	36
118	74
119	146
120	46
130	50
131	14
132	24
133	631
134	87
147	10
161	334
162	489
163	68
