Mass spectrum: VALERALDEHYDE DIHEXYL ACETAL; EI-MS
Name: PENTANAL DIHEXYL ACETAL
Formula: C17H36O2
Exact mass: 272.27153
Instrument type: EI-MS
m/z	relative intensity
26	12
27	175
29	232
31	90
39	115
41	438
42	168
43	999
44	86
45	22
53	23
54	14
55	256
56	312
57	731
58	46
67	18
68	41
69	204
70	16
71	37
83	14
84	37
85	556
86	229
87	195
88	11
113	20
131	43
141	25
170	105
171	198
172	21
215	66
