Mass spectrum: METHYL 2-PHENANTHRYL KETONE; EI-MS
Formula: C16H12O
Exact mass: 220.08882
Instrument type: EI-MS
m/z	relative intensity
43	88
44	122
51	13
56	1
63	17
74	17
75	39
76	1
77	11
83	12
87	22
88	20
89	90
95	17
99	12
103	11
110	14
126	17
149	16
150	8
151	131
152	23
174	35
175	5
176	370
177	538
178	92
189	3
190	12
191	15
205	999
206	17
207	28
220	754
221	132
222	16
