Mass spectrum: N-METHYLDODECANAMIDE; EI-MS
Formula: C13H27NO
Exact mass: 213.20926
Instrument type: EI-MS
m/z	relative intensity
26	3
27	36
28	20
29	7
30	32
31	27
32	80
33	0
38	1
39	28
40	6
41	14
42	29
43	142
44	12
45	4
46	1
53	8
54	9
55	10
56	23
57	80
58	254
59	1
60	22
61	5
65	2
66	0
67	11
68	6
69	33
70	1
71	28
72	5
73	999
74	6
75	3
76	1
77	2
78	0
79	3
80	2
81	9
82	0
83	17
84	26
85	16
86	23
87	52
88	3
91	1
92	0
93	2
94	1
95	8
96	0
97	13
98	17
99	5
100	6
101	7
102	2
109	4
110	0
111	5
112	5
113	2
114	2
115	11
116	2
121	1
123	0
125	2
126	1
127	1
128	4
129	15
130	2
137	1
138	0
139	1
140	2
141	8
142	3
143	5
153	1
154	1
155	0
156	10
157	8
158	1
167	0
168	1
169	1
170	20
171	1
172	1
182	4
183	14
184	1
185	2
198	3
199	1
200	1
201	1
211	1
212	5
213	4
214	8
215	1
