Mass spectrum: 7-METHOXYFLAVONOL; EI-MS
Name: 3-HYDROXY-7-METHOXY-2-PHENYL-4H-CHROMEN-4-ONE
Formula: C16H12O4
Exact mass: 268.07356
Instrument type: EI-MS
m/z	relative intensity
28	50
51	74
63	126
64	2
77	28
89	36
105	304
106	4
107	31
134	69
135	26
141	3
151	47
181	25
197	27
211	3
225	186
239	28
240	64
267	55
268	999
269	223
