Mass spectrum: 2-METHYL-1-BUTANOL; EI-MS
Name: ACTIVE AMYL ALCOHOL
Formula: C5H12O
Exact mass: 88.08882
Instrument type: EI-MS
m/z	relative intensity
15	28
19	12
26	31
27	28
28	72
29	768
30	22
31	41
33	21
38	18
39	205
40	3
41	996
42	178
43	137
45	8
50	15
51	20
52	15
53	3
55	282
56	961
57	999
58	5
59	38
69	13
70	466
71	38
