Mass spectrum: 2-DECENE; EI-MS
Formula: C10H20
Exact mass: 140.1565
Instrument type: EI-MS
m/z	relative intensity
30	93
31	39
32	19
39	246
40	71
41	926
42	249
43	999
44	74
45	55
53	74
54	168
55	740
56	390
57	828
58	121
59	26
60	25
65	13
66	23
67	184
68	162
69	379
70	434
71	249
72	81
73	37
79	30
80	17
81	124
82	161
83	252
84	129
85	92
86	13
93	12
95	64
96	73
97	124
98	50
99	13
109	21
110	23
111	38
112	17
125	12
