Mass spectrum: 2-AMINOXYMETHYLPHENANTHRENE; EI-MS
Formula: C15H13NO
Exact mass: 223.09971
Instrument type: EI-MS
m/z	relative intensity
38	200
44	67
50	25
51	3
63	50
74	50
75	67
76	7
77	17
88	167
89	67
95	3
103	17
104	33
115	17
126	3
139	25
150	75
151	150
152	7
163	33
165	67
174	33
175	1
176	300
177	333
178	300
179	5
180	67
189	267
190	100
191	999
192	233
205	300
206	550
207	2
208	583
209	100
223	50
