Mass spectrum: META-NITROPHENOL; EI-MS
Formula: C6H5NO3
Exact mass: 139.02694
Instrument type: EI-MS
m/z	relative intensity
26	32
27	79
28	15
29	3
30	111
37	68
38	180
39	83
40	27
42	12
43	12
49	1
50	69
51	49
52	24
53	12
55	29
61	43
62	90
63	23
74	28
75	26
81	214
92	3
93	506
94	40
109	32
113	1
129	836
130	60
