Mass spectrum: 3,5-DIPHENYL-ISOXAZOLE; EI-MS
Formula: C15H11NO
Exact mass: 221.08406
Instrument type: EI-MS
m/z	relative intensity
222	90
221	520
193	60
165	70
144	140
105	999
89	140
77	670
63	90
51	270
39	70
