Mass spectrum: 1,3,3-TRIMETHYLBICYCLO(2.2.1)HEPTAN-2-ONE; EI-MS
Name: (+)-FENCHONE
Formula: C10H16O
Exact mass: 152.12012
Instrument type: EI-MS
m/z	relative intensity
53	30
55	24
67	42
68	35
69	397
70	27
72	21
77	13
79	31
80	137
81	999
82	84
109	41
137	19
152	167
153	19
