Mass spectrum: DIBUTYL OXALATE; EI-MS
Formula: C10H18O4
Exact mass: 202.12051
Instrument type: EI-MS
m/z	relative intensity
29	338
41	354
42	14
43	11
55	37
56	209
57	999
58	44
102	12
146	6
