Mass spectrum: ETHYL 3-DIMETHYLAMINOBENZOATE; EI-MS
Formula: C11H15NO2
Exact mass: 193.11028
Instrument type: EI-MS
m/z	relative intensity
28	32
42	21
77	46
78	1
79	16
91	13
104	17
105	12
106	18
118	18
119	17
120	12
121	111
122	44
139	15
148	11
149	30
150	53
164	439
165	30
166	30
192	222
193	999
194	13
195	10
