Mass spectrum: 2-METHOXYETHYLAMINE; EI-MS
Formula: C3H9NO
Exact mass: 75.06841
Instrument type: EI-MS
m/z	relative intensity
15	59
18	43
27	16
28	54
29	35
30	999
31	15
41	15
42	58
43	16
44	46
45	118
75	13
