Mass spectrum: 1,1-DICHLORO-1-TRIMETHYLSILYL-2-PENTANOL; EI-MS
Formula: C8H18Cl2OSi
Exact mass: 228.0504
Instrument type: EI-MS
m/z	relative intensity
42	468
45	223
55	373
65	114
67	292
73	999
74	180
75	645
76	177
77	93
89	98
91	294
93	384
95	195
96	120
97	93
102	130
103	205
109	205
110	116
111	150
112	83
113	80
138	374
140	238
145	134
163	23
177	73
178	12
179	26
185	11
193	2
