Mass spectrum: 1,5-PENTANEDIOL; EI-MS
Formula: C5H12O2
Exact mass: 104.08373
Instrument type: EI-MS
m/z	relative intensity
15	67
26	29
27	289
28	215
29	334
30	31
31	969
32	26
33	29
38	14
39	162
40	57
41	699
42	138
43	344
44	501
45	177
46	12
53	67
54	33
55	570
56	999
57	652
58	117
61	29
62	12
67	193
68	430
69	43
71	50
73	110
74	229
75	12
85	31
86	38
