Mass spectrum: METHYL ETHYL SUCCINATE; EI-MS
Formula: C7H12O4
Exact mass: 160.07356
Instrument type: EI-MS
m/z	relative intensity
14	7
15	188
26	25
27	151
28	133
29	338
30	14
31	27
33	3
39	3
41	20
42	29
43	44
44	5
45	85
53	2
54	2
55	414
56	90
57	103
58	10
59	196
60	15
61	2
71	2
72	5
73	73
74	9
83	12
84	6
85	5
86	7
87	109
88	108
89	9
99	6
100	27
101	384
102	18
103	2
114	77
115	999
116	53
117	8
128	97
129	140
130	11
131	3
132	3
133	34
134	2
160	6
