Mass spectrum: O-CHLOROTOLUENE; EI-MS
Name: 2-CHLOROTOLUENE
Formula: C7H7Cl
Exact mass: 126.02363
Instrument type: EI-MS
m/z	relative intensity
27	12
37	14
38	23
39	93
43	19
44	21
445	17
45	67
50	41
51	45
61	21
62	46
63	119
64	27
65	83
73	23
74	13
75	16
86	12
89	132
90	109
91	999
92	80
99	22
125	105
126	380
127	61
128	125
129	10
