Mass spectrum: BENZYL CYANIDE; EI-MS
Formula: C8H7N
Exact mass: 117.05785
Instrument type: EI-MS
m/z	relative intensity
26	13
28	28
37	28
38	45
39	112
40	17
41	11
49	13
50	90
51	137
52	25
585	30
61	25
62	50
63	111
64	43
65	49
74	25
75	21
76	18
77	66
78	12
87	15
88	24
89	201
90	390
91	77
115	12
116	342
117	999
118	92
