Mass spectrum: 2-PYRUVOYLAMINOBENZAMIDE; EI-MS
Formula: C10H10N2O3
Exact mass: 206.06914
Instrument type: EI-MS
m/z	relative intensity
39	61
41	82
42	41
43	12
44	999
45	82
55	41
57	4
64	41
90	61
119	41
145	3
146	122
163	82
188	92
206	5
208	31
