Mass spectrum: BUTANAL DIBUTYL ACETAL; EI-MS
Formula: C12H26O2
Exact mass: 202.19328
Instrument type: EI-MS
m/z	relative intensity
27	126
28	27
29	322
31	4
39	56
41	351
42	20
43	11
44	21
47	16
55	282
56	6
57	999
58	30
71	23
72	2
73	501
74	21
89	14
103	12
129	299
130	21
159	108
