Mass spectrum: 7-METHOXY-2,5-DIMETHYL-1,2,3,4-TETRAHYDROPYRIMIDO(1,6-A)INDOLE; EI-MS
Formula: C14H18N2O
Exact mass: 230.14191
Instrument type: EI-MS
m/z	relative intensity
41	11
42	10
55	13
77	1
105	10
115	45
127	11
128	1
144	63
157	34
158	30
172	22
173	24
174	27
186	130
187	999
188	105
229	21
230	400
