Mass spectrum: TRIBUTYL CITRATE; EI-MS
Formula: C18H32O7
Exact mass: 360.2148
Instrument type: EI-MS
m/z	relative intensity
43	101
54	70
55	110
56	365
59	25
69	27
84	38
87	7
101	11
102	66
111	95
129	60
130	33
139	23
147	75
157	5
158	33
185	999
186	97
203	4
259	507
260	89
261	13
287	2
361	31
