Mass spectrum: ALLYL ISOPENTANOATE; EI-MS
Name: ALLYL ISOVALERATE
Formula: C8H14O2
Exact mass: 142.09938
Instrument type: EI-MS
m/z	relative intensity
15	17
26	19
27	156
29	183
31	13
38	24
39	333
41	955
42	108
43	209
45	13
53	13
54	45
55	134
56	76
57	981
58	88
59	180
60	13
69	40
81	18
82	25
83	14
85	999
86	54
99	17
100	161
101	17
103	15
