Mass spectrum: PARA-DIISOPROPYLBENZENE; EI-MS
Formula: C12H18
Exact mass: 162.14085
Instrument type: EI-MS
m/z	relative intensity
41	27
43	137
79	16
91	97
92	11
105	129
106	15
117	31
118	13
119	329
120	35
131	26
132	31
133	13
145	27
146	11
147	999
148	126
149	10
161	13
162	361
163	48
