Mass spectrum: 4-CHLORO-3-HYDROXY-3-METHYLBUTYL ACETATE; EI-MS
Formula: C7H13ClO3
Exact mass: 180.05532
Instrument type: EI-MS
m/z	relative intensity
27	47
28	69
29	85
31	3
39	30
41	45
42	32
43	999
44	40
45	85
53	14
55	4
56	17
57	64
58	23
61	13
67	14
69	22
70	45
71	50
72	29
73	58
77	18
84	1
87	27
88	133
89	71
92	1
93	110
95	36
103	13
105	8
107	25
