Mass spectrum: PALLADIUM DIACETONATE; EI-MS
Formula: C10H14O4Pd
Exact mass: 303.99269
Instrument type: EI-MS
m/z	relative intensity
14	6
15	30
17	4
18	2
26	8
27	26
28	40
29	2
31	14
37	4
38	6
39	2
40	6
41	25
42	28
43	999
44	20
45	2
50	2
51	0
53	4
55	8
57	3
58	2
67	2
69	5
71	18
85	19
86	6
98	2
100	137
101	1
103	5
159	2
