Mass spectrum: 6,7-DIMETHOXY-2-PHENETHYL CHROMONE; EI-MS
Name: 6,7-DIMETHOXY-2-PHENETHYL-4H-CHROMEN-4-ONE
Formula: C19H18O4
Exact mass: 310.12051
Instrument type: EI-MS
m/z	relative intensity
57	11
85	10
91	506
92	42
137	14
165	19
180	19
181	19
191	44
219	60
220	10
244	21
251	11
264	42
279	24
281	22
295	30
309	111
310	999
311	207
312	30
