Mass spectrum: 3-PHENYLPROPIONIC ACID METHYL ESTER; EI-MS
Formula: C10H12O2
Exact mass: 164.08373
Instrument type: EI-MS
m/z	relative intensity
15	54
17	7
18	11
27	43
29	8
39	68
41	8
45	7
50	38
51	100
52	28
53	11
55	13
59	21
62	5
63	30
65	86
74	9
75	9
76	10
77	131
78	110
79	104
87	6
89	17
90	4
91	653
92	54
102	13
103	111
104	999
105	415
106	29
107	41
121	10
131	28
132	11
133	98
134	10
164	317
165	35
