Mass spectrum: BENZYL BENZOATE; EI-MS
Formula: C14H12O2
Exact mass: 212.08373
Instrument type: EI-MS
m/z	relative intensity
27	21
31	67
39	39
45	34
50	27
51	101
63	19
65	92
77	329
78	26
79	55
89	45
90	72
91	438
92	35
105	999
106	84
107	63
167	57
168	12
194	103
195	17
212	221
213	35
