Mass spectrum: 1-METHOXYCARBONYL-5,10-DIHYDROPHENAZINE; EI-MS
Formula: C14H12N2O2
Exact mass: 240.08988
Instrument type: EI-MS
m/z	relative intensity
50	200
51	130
53	25
63	70
74	15
75	110
76	80
77	215
88	20
90	310
91	20
101	20
102	100
103	15
104	300
113	20
120	20
125	20
126	35
128	10
129	15
140	10
151	15
152	85
153	35
154	15
178	10
179	320
180	999
181	190
182	15
207	100
208	200
209	20
239	20
240	310
241	55
