Mass spectrum: 1-OCTADECANOYLPYRROLIDINE; EI-MS
Name: N-STEAROYLPYRROLIDINE
Formula: C22H43NO
Exact mass: 337.33447
Instrument type: EI-MS
m/z	relative intensity
98	78
99	11
112	14
113	999
114	72
126	186
127	39
140	26
154	13
168	21
182	14
196	7
210	4
224	4
238	6
252	6
266	3
280	3
294	4
308	3
322	2
337	10
338	2
