Mass spectrum: ETHYL 2-METHYLPENTANOATE; EI-MS
Formula: C8H16O2
Exact mass: 144.11503
Instrument type: EI-MS
m/z	relative intensity
26	18
27	131
29	250
30	15
31	14
39	66
41	198
42	66
43	591
45	51
53	20
55	97
56	60
57	22
59	18
69	35
70	40
71	487
72	32
73	63
74	476
75	46
87	99
99	254
100	22
101	54
102	999
103	58
115	120
116	17
117	21
129	15
