Mass spectrum: METHYL CROTONATE; EI-MS
Name: 2-BUTENOIC ACID METHYL ESTER
Formula: C5H8O2
Exact mass: 100.05243
Instrument type: EI-MS
m/z	relative intensity
15	76
27	15
29	22
37	10
39	195
40	34
41	441
42	27
59	47
68	33
69	999
70	45
85	211
86	10
100	146
101	26
