Mass spectrum: 3-METHYLCYCLOPENTANONE; EI-MS
Formula: C6H10O
Exact mass: 98.07316
Instrument type: EI-MS
m/z	relative intensity
27	15
28	214
29	48
39	2
40	18
41	285
42	612
43	4
55	606
56	345
57	21
69	999
70	105
83	95
98	687
99	50
