Mass spectrum: 1-DECANOL; EI-MS
Formula: C10H22O
Exact mass: 158.16707
Instrument type: EI-MS
m/z	relative intensity
15	11
27	240
28	64
29	427
30	13
31	254
32	17
39	152
40	35
41	826
42	411
43	995
45	34
46	34
53	49
54	87
55	999
56	932
57	457
58	20
67	85
68	296
69	701
70	899
71	171
73	26
81	23
82	226
83	587
84	430
85	88
