Mass spectrum: OCTANAL; EI-MS
Formula: C8H16O
Exact mass: 128.12012
Instrument type: EI-MS
m/z	relative intensity
38	51
39	458
40	94
41	999
42	395
43	794
44	623
45	171
53	83
54	88
55	525
56	526
57	573
58	64
66	54
67	174
68	206
69	299
71	113
72	110
81	203
82	229
83	52
84	348
85	88
100	78
110	54
