Mass spectrum: 4-TERT-BUTYLCYCLOHEXYL ACETATE(EQUATORIAL-AXIAL); EI-MS
Formula: C12H22O2
Exact mass: 198.16198
Instrument type: EI-MS
m/z	relative intensity
29	10
41	30
43	109
54	4
55	34
56	334
57	999
58	5
61	338
67	317
68	25
69	3
70	18
80	512
81	251
82	65
83	295
84	27
95	39
96	3
99	21
109	13
110	19
117	3
123	178
124	31
138	235
139	4
142	32
143	58
