Mass spectrum: -METHYLBUTANE-1,3-DIOL; EI-MS
Formula: C5H12O2
Exact mass: 104.08373
Instrument type: EI-MS
m/z	relative intensity
27	80
29	72
31	291
39	8
40	20
41	283
42	45
43	93
44	30
45	38
53	31
55	5
56	75
57	30
58	205
59	999
60	44
61	20
67	16
68	2
69	97
71	277
72	22
73	5
86	45
89	211
115	53
