Mass spectrum: 3-METHYL-1-PENTEN-4-YNE-3-OL; EI-MS
Formula: C6H8O
Exact mass: 96.05751
Instrument type: EI-MS
m/z	relative intensity
26	33
27	129
28	302
29	2
31	12
32	56
37	13
38	2
39	75
41	40
42	13
43	39
44	12
50	62
51	135
52	5
53	288
54	26
55	113
61	1
62	13
63	23
67	57
68	2
69	184
70	18
77	77
78	3
79	28
81	999
82	57
95	13
96	13
