Mass spectrum: 2-METHYLBUTANOL; EI-MS
Name: 2-METHYL-1-BUTANOL
Formula: C5H12O
Exact mass: 88.08882
Instrument type: EI-MS
m/z	relative intensity
15	29
26	40
27	311
28	72
29	749
30	23
31	459
33	12
38	20
39	251
40	35
41	932
43	145
45	69
50	14
51	17
53	30
55	283
56	920
57	999
58	55
59	39
69	10
70	427
71	27
