Mass spectrum: ETHYLENEGLYCOL DIMETHYL ETHER; EI-MS
Formula: C4H10O2
Exact mass: 90.06808
Instrument type: EI-MS
m/z	relative intensity
14	22
15	6
26	13
27	4
28	35
29	185
30	17
31	1
42	13
43	60
44	7
45	999
46	22
58	65
59	28
60	11
90	108
