Mass spectrum: BROMOBENZENE; EI-MS
Formula: C6H5Br
Exact mass: 155.95746
Instrument type: EI-MS
m/z	relative intensity
48	21
49	103
50	802
51	90
52	42
60	16
61	30
62	3
63	16
72	14
73	61
74	18
75	107
76	77
77	999
78	5
79	30
80	14
81	28
82	1
156	107
157	19
158	105
159	16
