Mass spectrum: 2-ETHENOXY-1,7,7-TRIMETHYLBICYCLO(2.2.1)HEPTANE; EI-MS
Formula: C12H20O
Exact mass: 180.15142
Instrument type: EI-MS
m/z	relative intensity
27	56
29	58
39	52
41	17
43	136
53	61
55	98
57	11
67	233
68	31
69	284
71	10
77	50
79	72
81	999
82	9
83	53
91	44
93	84
95	38
96	31
107	23
109	55
121	4
137	847
138	98
