Mass spectrum: 7-METHOXYISOFLAVAN-4ALPHA-OL; EI-MS
Name: 7-METHOXY-3-PHENYLCHROMAN-4(S)-OL
Formula: C16H16O3
Exact mass: 256.10994
Instrument type: EI-MS
m/z	relative intensity
28	20
39	30
50	20
51	5
63	47
64	13
65	27
69	4
74	10
75	27
76	50
77	9
78	10
88	17
89	40
91	3
102	20
103	10
105	70
115	5
118	30
119	70
126	10
127	1
128	20
139	40
140	10
141	1
146	10
151	20
152	80
153	2
160	13
161	430
162	70
163	3
164	20
165	173
166	53
167	3
176	20
177	30
178	50
179	1
194	120
195	50
207	40
210	1
222	33
223	90
224	20
237	89
238	999
239	210
240	20
