Mass spectrum: CINNAMIC ACID ALLYL ESTER; EI-MS
Formula: C12H12O2
Exact mass: 188.08373
Instrument type: EI-MS
m/z	relative intensity
39	10
41	65
55	12
66	10
69	34
77	109
78	17
82	10
84	10
91	53
92	10
97	29
102	26
103	403
104	456
105	48
115	15
116	24
117	12
128	61
129	100
130	22
131	999
132	124
133	20
141	14
142	65
143	226
144	39
146	70
147	22
160	12
169	12
170	12
173	46
187	10
188	287
189	43
190	12
