Mass spectrum: DIETHYLENE GLYCOL DIPELARGONATE; EI-MS
Formula: C22H42O5
Exact mass: 386.30322
Instrument type: EI-MS
m/z	relative intensity
45	327
53	32
54	367
55	149
56	812
57	65
58	32
59	21
60	51
67	74
68	59
69	16
70	139
71	350
72	22
73	18
74	34
75	24
79	24
81	8
82	22
83	78
84	201
85	9
86	352
87	220
88	120
89	3
95	28
96	28
97	59
98	23
99	375
100	53
101	30
103	2
111	22
112	76
113	224
114	2
115	45
123	22
127	72
130	3
138	67
139	22
140	65
141	46
142	90
143	314
144	28
148	2
149	55
155	101
156	132
157	34
158	63
159	28
170	45
171	11
172	24
183	24
184	421
185	999
186	139
187	21
190	45
198	2
199	22
215	24
216	21
219	2
228	22
247	57
288	51
289	1
326	13
387	15
