Mass spectrum: ISOBUTYL TERT-BUTYL ETHER; EI-MS
Formula: C8H18O
Exact mass: 130.13577
Instrument type: EI-MS
m/z	relative intensity
27	270
29	486
41	344
43	12
45	999
57	841
59	272
101	35
130	13
