Mass spectrum: TETRADECANEDIOIC ACID BIS(TRIMETHYLSILYL)ESTER; EI-MS
Name: DI(TRIMETHYLSILYL) TETRADECANEDIOATE
Formula: C20H42O4Si2
Exact mass: 402.26216
Instrument type: EI-MS
m/z	relative intensity
44	83
45	166
47	166
55	26
69	166
73	885
75	999
77	19
81	166
83	83
95	197
97	8
117	291
129	260
147	114
149	13
204	270
217	250
271	171
287	34
388	104
