Mass spectrum: ETHYL P-HYDROXYBENZOATE; EI-MS
Formula: C9H10O3
Exact mass: 166.06299
Instrument type: EI-MS
m/z	relative intensity
39	200
63	70
65	260
93	280
120	60
121	999
122	90
138	350
166	430
167	70
