Mass spectrum: METHYL ACRYLATE; EI-MS
Formula: C4H6O2
Exact mass: 86.03678
Instrument type: EI-MS
m/z	relative intensity
14	12
15	148
25	20
26	110
27	464
28	21
29	46
30	52
39	12
42	100
43	38
44	14
45	12
53	22
54	13
55	999
56	41
57	11
58	107
59	48
68	20
85	144
86	34
