Mass spectrum: METHYL 2-ACETOXYHEPTANOATE; EI-MS
Name: 2-ACETOXYHEPTANOIC ACID METHYL ESTER
Formula: C10H18O4
Exact mass: 202.12051
Instrument type: EI-MS
m/z	relative intensity
27	60
29	58
41	78
43	999
55	66
59	25
69	15
71	15
99	10
110	17
113	17
142	13
143	99
171	2
