Mass spectrum: DIMETHYL ETHER; EI-MS
Formula: C2H6O
Exact mass: 46.04186
Instrument type: EI-MS
m/z	relative intensity
12	30
13	57
14	119
15	57
16	28
17	21
28	32
29	79
30	35
31	73
43	30
45	999
46	466
47	42
