Mass spectrum: TRIS(PENTAFLUOROPHENYL)-DICHLOROPHOSPHORANE; EI-MS
Formula: C18Cl2F15P
Exact mass: 601.88751
Instrument type: EI-MS
m/z	relative intensity
69	540
79	45
93	67
98	6
99	26
105	30
110	71
117	2
129	300
148	57
167	35
168	3
198	75
217	241
227	130
246	5
258	70
265	131
277	110
278	0
296	410
297	59
312	40
315	6
346	30
365	999
366	115
513	6
514	22
532	720
533	136
534	20
