Mass spectrum: 1,4-DICHLOROBENZENE; EI-MS
Formula: C6H4Cl2
Exact mass: 145.96901
Instrument type: EI-MS
m/z	relative intensity
51	85
55	77
56	24
60	27
61	38
62	23
72	42
73	180
74	292
75	300
76	41
84	43
85	45
86	22
109	26
110	120
111	389
112	59
113	119
145	151
146	999
147	140
148	571
149	54
150	92
