Mass spectrum: ISOPENTYL 4-METHYLPENTANOATE; EI-MS
Name: ISOAMYL 4-METHYLPENTANOATE
Formula: C11H22O2
Exact mass: 186.16198
Instrument type: EI-MS
m/z	relative intensity
27	141
29	140
31	10
39	96
41	301
42	103
43	681
44	19
45	14
53	21
54	10
55	314
56	61
57	62
60	21
69	61
70	999
71	415
72	22
73	59
74	18
81	166
82	10
83	21
87	13
97	12
99	426
100	38
101	67
115	16
117	99
143	21
