Mass spectrum: 2,3-DIMETHYL-2,3-BUTANEDIOL; EI-MS
Formula: C6H14O2
Exact mass: 118.09938
Instrument type: EI-MS
m/z	relative intensity
15	27
27	17
29	35
31	123
39	35
41	112
42	24
43	218
55	13
57	165
58	28
59	999
60	37
83	15
85	114
101	11
103	17
