Mass spectrum: 2,5-PIPERAZINEDIONE; EI-MS
Name: CYCLOGLYCYL-GLYCINE
Formula: C4H6N2O2
Exact mass: 114.04293
Instrument type: EI-MS
m/z	relative intensity
14	46
15	41
27	85
28	584
29	411
30	999
31	15
41	16
42	280
43	228
44	16
56	44
58	32
59	15
71	327
72	16
85	48
114	485
115	36
