Mass spectrum: DIETHYL OXALATE; EI-MS
Formula: C6H10O4
Exact mass: 146.05791
Instrument type: EI-MS
m/z	relative intensity
15	20
26	29
27	132
28	9
29	999
30	28
31	162
41	3
43	38
45	130
46	32
47	3
56	24
57	23
59	22
73	2
74	100
75	25
