Mass spectrum: LIMONENE; EI-MS
Name: PARA-MENTHA-1,8-DIENE
Formula: C10H16
Exact mass: 136.1252
Instrument type: EI-MS
m/z	relative intensity
15	12
27	249
28	33
29	12
38	16
39	362
40	107
41	35
42	52
43	42
50	27
51	9
52	44
53	267
54	26
55	9
63	32
65	34
66	42
67	56
68	999
69	90
77	181
78	4
79	296
80	111
81	99
82	2
91	164
92	187
93	571
94	22
96	71
103	12
105	49
106	2
107	159
108	47
119	11
121	16
122	16
136	245
137	25
