Mass spectrum: 1-(2-METHOXYPHENYL)-5-METHYL-4-HEXENE-1-ONE; EI-MS
Formula: C14H18O2
Exact mass: 218.13068
Instrument type: EI-MS
m/z	relative intensity
77	51
121	47
135	999
136	10
137	14
147	33
150	372
151	4
161	12
162	16
163	25
175	4
185	24
200	21
203	91
204	2
218	309
219	44
