Mass spectrum: N-METHYL-N-(TERT-BUTYLDIMETHYLSILYL)ANILINE; EI-MS
Formula: C13H23NSi
Exact mass: 221.15998
Instrument type: EI-MS
m/z	relative intensity
43	47
45	37
51	17
56	11
58	27
59	484
60	39
61	17
65	11
73	77
75	43
77	47
79	10
84	24
104	48
105	20
106	54
107	34
119	27
120	14
121	10
134	24
135	13
148	13
149	41
150	17
162	14
164	999
165	157
166	46
206	16
221	77
222	15
