Mass spectrum: 5-METHOXYINDOLE-3-ACETIC ACID METHYL ESTER; EI-MS
Formula: C12H13NO3
Exact mass: 219.08954
Instrument type: EI-MS
m/z	relative intensity
39	46
44	25
51	46
59	3
62	33
63	75
80	37
89	9
90	66
91	25
116	50
117	15
118	29
130	25
144	37
145	18
147	46
159	41
160	999
161	15
175	33
177	29
204	8
219	43
220	62
