Mass spectrum: 2,6-DIMETHYL-4-HEPTANONE; EI-MS
Formula: C9H18O
Exact mass: 142.13577
Instrument type: EI-MS
m/z	relative intensity
15	16
27	152
29	215
39	152
40	17
41	406
42	80
43	178
53	12
55	21
56	19
57	999
58	246
59	12
67	10
69	22
85	730
86	39
100	17
127	35
142	83
