Mass spectrum: 3-(2-AMINOETHYL)-2-METHYLINDOLE; EI-MS
Formula: C11H14N2
Exact mass: 174.1157
Instrument type: EI-MS
m/z	relative intensity
39	18
42	12
50	11
51	2
52	10
63	16
65	11
75	2
76	20
77	67
78	12
89	1
91	17
101	11
102	30
103	4
115	60
116	23
117	36
127	2
128	46
129	18
130	66
131	2
142	23
143	116
144	999
145	34
146	34
174	130
175	18
