Mass spectrum: BUTANOIC ACID; EI-MS
Name: BUTYRIC ACID
Formula: C4H8O2
Exact mass: 88.05243
Instrument type: EI-MS
m/z	relative intensity
15	18
18	25
26	24
27	235
28	95
29	120
31	10
38	18
39	110
40	15
41	224
42	187
43	171
44	11
45	131
55	86
60	999
61	23
69	12
70	19
71	29
73	285
87	12
88	15
