Mass spectrum: ACETOPHENONE; EI-MS
Formula: C8H8O
Exact mass: 120.05751
Instrument type: EI-MS
m/z	relative intensity
50	183
51	405
77	955
78	44
105	999
120	145
