Mass spectrum: ETHYL 4-OXOPENTANOATE; EI-MS
Name: ETHYL LEVULINATE
Formula: C7H12O3
Exact mass: 144.07864
Instrument type: EI-MS
m/z	relative intensity
15	19
26	20
27	109
28	7
29	156
30	13
31	11
39	2
41	13
42	58
43	999
44	2
45	84
55	116
56	75
57	8
58	17
61	10
71	124
72	1
73	154
74	226
75	53
98	11
99	834
100	49
101	227
102	19
103	14
129	283
130	18
144	68
