Mass spectrum: 1-PHENYL-1-(5-METHYL-3-PHENYL-2-FURYL)ACETONE (3,3,3-D3); EI-MS
Formula: C20H18O2
Exact mass: 290.13068
Instrument type: EI-MS
m/z	relative intensity
39	60
40	29
41	44
43	356
44	24
45	44
46	80
47	91
49	53
50	36
51	82
52	22
55	40
56	18
57	29
62	16
63	38
64	18
65	40
66	36
67	20
69	20
71	20
74	18
75	18
76	31
77	158
78	27
79	16
81	20
82	44
83	20
84	213
85	16
86	142
88	33
89	33
90	22
91	42
92	16
93	16
94	73
95	18
97	18
101	22
102	84
103	27
105	147
106	36
107	18
108	18
115	44
116	20
117	142
119	151
121	49
123	18
126	27
127	29
128	31
129	18
140	16
141	38
149	18
150	11
151	18
152	22
161	13
163	13
165	18
168	13
169	38
170	13
176	13
177	13
178	22
179	18
189	20
190	13
190.5	13
191	13
200	20
201	20
202	104
203	82
204	49
205	24
209	20
215	20
216	9
217	9
218	9
219	9
228	16
229	16
230	9
231	18
232	11
245	16
246	18
247	999
248	267
249	40
250	11
262	22
292	20
293	53
294	16
