Mass spectrum: 3,5-DICHLOROPHENOL; EI-MS
Formula: C6H4Cl2O
Exact mass: 161.96392
Instrument type: EI-MS
m/z	relative intensity
51	12
53	42
60	36
61	86
62	164
63	315
64	49
72	49
73	100
74	45
75	39
81	69
82	44
83	25
97	73
98	279
99	284
100	103
101	99
126	81
127	45
128	33
133	41
134	66
135	30
136	42
161	33
162	999
163	86
164	601
165	44
166	97
