Mass spectrum: METHYL MYRISTATE; EI-MS
Name: METHYL TETRADECANOATE
Formula: C15H30O2
Exact mass: 242.22458
Instrument type: EI-MS
m/z	relative intensity
15	28
27	63
29	133
39	37
41	275
42	60
43	302
45	12
53	16
54	18
55	225
56	38
57	125
59	90
67	21
69	113
70	17
71	32
73	18
74	999
75	144
81	13
83	55
84	23
85	16
87	601
88	51
97	32
98	19
101	34
111	11
115	11
129	33
143	108
157	15
185	14
199	61
211	33
213	11
242	50
