Mass spectrum: N,N-DIMETHYLCYCLOHEXYLAMINE; EI-MS
Formula: C8H17N
Exact mass: 127.1361
Instrument type: EI-MS
m/z	relative intensity
28	22
41	60
42	130
43	3
44	83
45	20
53	30
54	2
55	30
56	55
58	60
70	5
71	155
82	20
84	999
85	6
98	40
126	30
127	124
128	25
