Mass spectrum: 2-OCTANOL; EI-MS
Name: SEC-OCTYL ALCOHOL
Formula: C8H18O
Exact mass: 130.13577
Instrument type: EI-MS
m/z	relative intensity
15	11
19	13
27	83
28	2
29	79
31	19
39	47
41	15
42	50
43	118
44	74
45	999
46	23
55	199
56	67
57	5
58	16
69	53
70	57
71	1
82	11
83	34
84	58
97	7
112	44
115	27
