Mass spectrum: PARA-TOLYLACETIC ACID TRIMETHYLSILYL ESTER; EI-MS
Name: TRIMETHYLSILYL PARA-TOLYLACETATE
Formula: C12H18O2Si
Exact mass: 222.10761
Instrument type: EI-MS
m/z	relative intensity
43	39
45	180
73	999
74	8
75	231
77	109
78	31
79	3
103	31
104	27
105	58
151	4
178	109
179	47
207	70
222	27
