Mass spectrum: CIS-3-HEXENYL PROPIONATE; EI-MS
Formula: C9H16O2
Exact mass: 156.11503
Instrument type: EI-MS
m/z	relative intensity
26	17
27	189
28	36
29	465
30	11
31	19
39	132
40	15
41	213
42	29
43	14
51	13
53	51
54	90
55	116
56	14
57	999
58	29
65	13
67	798
68	53
69	13
81	58
82	680
83	61
87	14
