Mass spectrum: 2,5-DIMETHYLPYRAZINE; EI-MS
Formula: C6H8N2
Exact mass: 108.06875
Instrument type: EI-MS
m/z	relative intensity
39	169
40	408
41	30
42	999
43	57
53	10
54	10
61	10
66	21
67	60
80	76
81	301
82	21
107	80
108	610
109	167
