Mass spectrum: VINYL PROPIONATE; EI-MS
Formula: C5H8O2
Exact mass: 100.05243
Instrument type: EI-MS
m/z	relative intensity
14	21
15	60
26	61
27	278
28	82
29	999
30	21
42	45
43	130
44	125
55	17
56	25
57	931
58	34
100	84
