Mass spectrum: 1,1-DIETHOXYNONANE; EI-MS
Formula: C13H28O2
Exact mass: 216.20893
Instrument type: EI-MS
m/z	relative intensity
15	11
29	188
31	88
43	13
47	205
55	129
57	340
69	21
75	252
83	126
85	270
95	3
103	999
104	65
113	13
124	2
127	27
141	21
171	229
172	28
