Mass spectrum: PROPYL BENZOATE; EI-MS
Name: BENZOIC ACID PROPYL ESTER
Formula: C10H12O2
Exact mass: 164.08373
Instrument type: EI-MS
m/z	relative intensity
51	24
77	270
78	17
79	14
105	999
106	77
122	278
123	475
124	31
135	8
164	4
