Mass spectrum: 11ALPHA-METHOXY-6,6,8BETA-TETRAMETHYL-5ALPHA-TRICYCLO(6.3.0.0(1,5))UNDECAN-2-ONE; EI-MS
Formula: C15H24O2
Exact mass: 236.17763
Instrument type: EI-MS
m/z	relative intensity
72	63
123	15
161	15
165	999
166	141
204	15
208	39
221	2
236	99
237	15
