Mass spectrum: 4,4-DIMETHYL-1,2,3,4-TETRAHYDRO-GAMMA-CARBOLINE; EI-MS
Formula: C13H16N2
Exact mass: 200.13135
Instrument type: EI-MS
m/z	relative intensity
42	35
44	19
51	10
71	1
77	27
91	15
92	8
115	4
128	19
130	10
143	28
144	1
185	999
186	74
199	6
200	123
