Mass spectrum: 3,5-DIMETHYLISOXAZOLE; EI-MS
Formula: C5H7NO
Exact mass: 97.05276
Instrument type: EI-MS
m/z	relative intensity
26	36
27	118
28	151
37	1
38	23
39	104
40	28
41	5
42	57
43	491
44	11
51	2
52	34
53	18
54	520
55	25
56	11
63	12
65	14
68	2
82	864
83	40
96	11
97	999
98	83
