Mass spectrum: PROPYL PHENYL KETONE; EI-MS
Formula: C10H12O
Exact mass: 148.08882
Instrument type: EI-MS
m/z	relative intensity
27	15
28	11
39	17
41	17
43	18
50	23
51	94
55	13
76	12
77	420
78	38
91	13
105	999
106	74
120	102
130	13
133	12
148	107
149	12
