Mass spectrum: CHLORZOXAZONE; EI-MS
Formula: C7H4ClNO2
Exact mass: 168.99306
Instrument type: EI-MS
m/z	relative intensity
35	29
36	149
37	50
38	7
39	80
40	59
41	31
42	0
43	20
44	179
45	9
46	0
47	9
48	9
49	49
50	17
51	204
52	109
53	28
54	1
55	29
56	13
57	23
58	1
60	25
61	58
62	94
63	20
64	27
65	16
66	3
70	0
71	13
72	16
73	19
74	2
75	46
76	129
77	59
78	58
79	69
80	9
85	28
86	5
87	20
88	19
89	21
90	5
91	20
92	8
95	12
96	1
97	14
98	44
99	9
100	2
101	2
105	9
106	23
107	1
112	27
113	554
114	57
115	17
116	19
119	19
125	44
126	1
127	19
128	3
140	29
141	2
142	11
143	17
144	2
166	0
167	9
168	12
169	999
170	8
171	314
172	40
173	9
