Mass spectrum: PROPANEDIOIC ACID DIMETHYL ESTER; EI-MS
Name: DIMETHYL MALONATE
Formula: C5H8O4
Exact mass: 132.04226
Instrument type: EI-MS
m/z	relative intensity
14	25
15	174
27	37
29	254
30	20
31	53
41	54
42	391
43	252
44	25
45	119
57	352
58	57
59	999
60	21
69	82
74	285
100	42
101	990
102	40
104	25
105	13
132	10
133	19
