Mass spectrum: 3-ETHYL-2-PYRAZOLINE; EI-MS
Formula: C5H10N2
Exact mass: 98.0844
Instrument type: EI-MS
m/z	relative intensity
26	41
27	231
28	385
29	20
30	96
38	26
39	173
40	4
41	500
42	413
43	86
44	2
51	19
52	21
53	57
54	11
55	125
56	77
57	33
67	2
68	54
69	346
70	125
81	4
82	32
83	999
84	53
95	4
96	22
97	365
98	702
99	44
