Mass spectrum: 1-PHENYL-1-NONEN-3-ONE; EI-MS
Formula: C15H20O
Exact mass: 216.15142
Instrument type: EI-MS
m/z	relative intensity
40	83
41	76
51	67
54	2
63	19
75	19
77	243
78	2
102	72
103	405
104	67
117	5
128	19
131	999
132	95
145	11
146	624
147	76
173	19
174	1
187	19
216	138
217	29
