Mass spectrum: 1,5-DIMETHOXYBICYCLO(3.2.2)NON-6-EN-2-ONE; EI-MS
Formula: C11H16O3
Exact mass: 196.10994
Instrument type: EI-MS
m/z	relative intensity
89	30
91	30
93	30
94	3
96	30
101	36
104	52
106	3
107	42
108	121
109	85
110	15
111	48
121	130
124	999
125	12
126	42
132	36
135	36
136	6
137	64
138	39
139	55
140	21
141	52
146	42
148	39
149	6
150	33
153	33
173	42
174	20
175	45
178	64
180	30
181	3
196	127
197	39
