Mass spectrum: 3-METHYLPHENYLACETIC ACID TRIMETHYLSILYL ESTER; EI-MS
Formula: C12H18O2Si
Exact mass: 222.10761
Instrument type: EI-MS
m/z	relative intensity
43	23
44	17
45	61
47	3
51	19
58	12
59	8
61	2
63	10
65	10
72	14
73	999
74	91
75	237
76	17
77	7
78	21
79	29
103	36
104	2
151	23
178	108
179	36
207	10
208	12
222	49
223	8
