Mass spectrum: (-)-MENTHYL ACRYLATE; EI-MS
Formula: C13H22O2
Exact mass: 210.16198
Instrument type: EI-MS
m/z	relative intensity
32	198
39	53
40	19
41	215
42	25
43	196
44	14
53	34
54	34
55	898
56	66
57	103
58	49
65	11
67	171
68	75
69	194
70	37
71	35
73	15
77	15
79	40
80	84
81	662
82	322
83	131
84	20
93	18
94	116
95	999
96	278
97	57
98	12
109	100
110	55
111	24
123	389
124	42
125	25
137	38
138	853
139	99
167	11
