Mass spectrum: 2,3-DIMETHYL-1,3-BUTADIENE; EI-MS
Formula: C6H10
Exact mass: 82.07825
Instrument type: EI-MS
m/z	relative intensity
41	638
42	153
43	97
45	82
51	102
53	168
54	306
55	107
56	97
65	138
67	999
79	82
81	133
82	663
83	92
