Mass spectrum: (2S)-N-CARBOBENZOXY-2-(PYRROLIDINE-2-YL)PYRROLIDINE; EI-MS
Formula: C16H22N2O2
Exact mass: 274.16813
Instrument type: EI-MS
m/z	relative intensity
69	16
70	999
71	11
91	67
274	3
275	3
