Mass spectrum: DIMETHYL AZELATE; EI-MS
Formula: C11H20O4
Exact mass: 216.13616
Instrument type: EI-MS
m/z	relative intensity
15	463
18	31
26	23
27	19
28	110
29	234
30	23
35	2
36	24
39	143
40	29
41	52
42	205
43	563
44	25
45	9
48	28
49	15
53	62
54	4
55	999
56	75
57	71
58	3
59	551
60	33
62	27
63	5
67	80
68	80
69	381
70	4
71	36
73	70
74	881
75	4
78	16
79	26
80	37
81	8
82	100
83	604
84	265
85	4
86	33
87	311
88	32
93	3
95	35
96	85
97	252
98	14
100	30
101	100
106	30
109	2
110	55
111	412
112	50
113	3
114	26
115	30
123	24
124	19
125	150
126	22
127	20
128	6
129	29
130	21
134	26
135	3
137	26
140	22
141	19
142	2
143	290
144	36
151	24
152	56
153	79
156	30
157	20
184	2
185	319
186	30
