Mass spectrum: METHYL 12,13-BIS(TERT-BUTYLDIMETHYLSILOXY)OCTADEC-9(Z)-ENOATE; EI-MS
Formula: C31H64O4Si2
Exact mass: 556.43431
Instrument type: EI-MS
m/z	relative intensity
550	203
570	48
590	113
670	184
690	127
730	999
740	122
750	477
760	37
770	33
790	57
810	185
830	72
850	38
890	173
910	41
930	62
950	138
970	41
990	89
1010	39
1070	43
1090	74
1130	36
1150	163
1210	35
1230	52
1270	46
1330	108
1350	42
1370	35
1470	559
1480	101
1490	135
1550	32
1570	36
1590	52
1630	83
1710	471
1720	82
1730	39
1890	234
1900	46
1970	50
2150	315
2160	64
2190	48
2270	47
2790	36
2890	47
2930	68
3410	158
3420	42
3530	32
3590	102
3600	32
3670	234
3680	68
3990	52
4090	30
4990	340
5000	145
5010	56
