Mass spectrum: CYCLOPENTANE; EI-MS
Formula: C5H10
Exact mass: 70.07825
Instrument type: EI-MS
m/z	relative intensity
15	10
17	56
18	263
26	1
27	84
28	36
29	41
31	1
32	8
37	7
38	19
39	16
40	52
41	264
42	999
43	5
44	5
50	6
51	6
53	2
54	8
55	330
56	16
57	1
63	5
65	6
67	16
69	1
70	390
71	27
