Mass spectrum: METHYL IODIDE; EI-MS
Name: IODOMETHANE
Formula: CH3I
Exact mass: 141.92794
Instrument type: EI-MS
m/z	relative intensity
127	246
128	16
139	40
140	37
141	135
142	999
143	11
