Mass spectrum: 1,3-BUTANEDIOL; EI-MS
Formula: C4H10O2
Exact mass: 90.06808
Instrument type: EI-MS
m/z	relative intensity
15	72
19	207
26	31
27	233
28	259
29	269
30	11
31	305
39	84
40	16
41	128
42	144
43	999
44	218
45	903
46	52
47	18
55	48
57	249
71	19
72	292
73	17
75	84
