Mass spectrum: 2-METHYLMERCAPTBENZOTHIAZOLE; EI-MS
Formula: C8H7NS2
Exact mass: 181.00199
Instrument type: EI-MS
m/z	relative intensity
38	53
45	109
62	43
63	104
64	63
69	97
95	46
96	46
104	68
108	24
109	73
121	46
122	97
128	4
133	48
135	102
136	163
139	5
148	614
149	114
166	97
180	25
181	999
182	156
183	114
