Mass spectrum: 2-((DIETHOXYPHOSPHORYL)METHYL)-5-METHYLPYRROLE; EI-MS
Formula: C10H18NO3P
Exact mass: 231.10243
Instrument type: EI-MS
m/z	relative intensity
39	25
41	51
42	63
43	31
51	35
52	33
53	48
54	15
65	34
66	33
67	27
77	18
78	16
80	16
81	54
93	118
94	999
95	150
96	25
108	20
109	30
120	21
156	22
202	14
231	61
232	15
