Mass spectrum: 2-METHOXYETHANOL; EI-MS
Name: METHYL CELLOSOLVE
Formula: C3H8O2
Exact mass: 76.05243
Instrument type: EI-MS
m/z	relative intensity
14	12
15	159
27	46
28	21
29	160
30	11
31	168
42	15
43	69
44	14
45	999
46	41
47	78
58	36
76	87
