Mass spectrum: BUTYL CHLORIDE; EI-MS
Name: 1-CHLOROBUTANE
Formula: C4H9Cl
Exact mass: 92.03928
Instrument type: EI-MS
m/z	relative intensity
26	35
27	279
28	152
29	195
31	12
38	14
39	107
40	23
41	625
42	49
43	332
49	24
51	15
55	82
56	999
57	99
62	16
63	59
65	16
