Mass spectrum: ETHYL P-AMINOBENZOATE; EI-MS
Formula: C9H11NO2
Exact mass: 165.07898
Instrument type: EI-MS
m/z	relative intensity
26	130
27	350
28	200
29	310
30	70
37	70
38	110
39	330
40	110
41	150
52	120
62	80
63	200
64	140
65	640
66	130
91	70
92	440
93	100
119	50
120	999
121	130
122	40
137	200
138	40
165	220
166	40
