Mass spectrum: HEPTANEDIOIC ACID DIBUTYL ESTER; EI-MS
Name: DIBUTYL PIMELATE
Formula: C15H28O4
Exact mass: 272.19876
Instrument type: EI-MS
m/z	relative intensity
29	89
41	110
42	59
43	189
60	54
61	19
69	25
71	16
73	64
83	96
84	37
85	19
86	13
87	355
100	213
101	199
102	34
110	12
111	386
112	67
128	27
129	999
130	71
141	3
142	5
143	262
144	19
156	205
157	22
158	18
184	17
185	795
186	85
203	9
