Mass spectrum: 2-BUTOXYETHANOL; EI-MS
Formula: C6H14O2
Exact mass: 118.09938
Instrument type: EI-MS
m/z	relative intensity
15	18
19	17
26	13
27	150
28	43
29	339
30	11
31	136
39	71
41	363
42	23
43	61
44	38
45	457
46	10
55	60
56	84
57	999
58	46
63	14
71	43
72	15
73	13
75	76
87	169
100	26
