Mass spectrum: 4-CHLORO-6-METHYL-2-PHENYLPYRIMIDINE; EI-MS
Formula: C11H9ClN2
Exact mass: 204.04543
Instrument type: EI-MS
m/z	relative intensity
50	30
51	180
66	180
76	17
77	260
102	120
103	230
104	3
169	999
170	160
204	690
206	250
