Mass spectrum: 2-ISOBUTYL-4,5-DIMETHYLOXAZOLE; EI-MS
Formula: C9H15NO
Exact mass: 153.11536
Instrument type: EI-MS
m/z	relative intensity
41	141
42	280
43	445
54	20
55	121
68	411
69	360
70	261
81	30
82	121
84	20
96	31
110	830
111	999
112	230
138	371
139	50
152	205
153	479
154	139
