Mass spectrum: 2-N-PROPYLPYRIDINE; EI-MS
Formula: C8H11N
Exact mass: 121.08915
Instrument type: EI-MS
m/z	relative intensity
27	404
65	86
78	112
79	9
92	94
93	999
106	306
120	15
121	44
