Mass spectrum: DIMETHYLHYDRAZONE BETA-METHYLACRYLALDEHYDE; EI-MS
Name: 2-BUTENAL DIMETHYLHYDRAZONE
Formula: C6H12N2
Exact mass: 112.10005
Instrument type: EI-MS
m/z	relative intensity
28	477
29	87
30	213
37	2
38	52
39	348
40	61
41	51
42	781
43	477
44	740
45	28
46	117
50	19
51	39
52	3
53	148
54	96
55	65
56	44
57	100
58	78
59	74
67	24
68	695
69	313
70	361
71	5
80	43
81	46
82	130
83	8
84	93
85	12
94	17
95	4
96	43
97	300
98	20
111	7
112	999
113	100
