Mass spectrum: 1-PENTAMETHYLDISILANYL-4-TRIMETHYLSILOXYBENZENE; EI-MS
Formula: C14H28OSi3
Exact mass: 296.1448
Instrument type: EI-MS
m/z	relative intensity
43	12
45	48
59	20
73	468
74	41
75	26
83	11
119	20
121	14
131	22
133	23
134	19
135	14
147	53
148	14
149	24
179	22
193	320
194	65
195	30
207	28
208	14
223	999
224	222
225	92
226	14
281	78
282	24
283	11
296	48
297	15
