Mass spectrum: P-CRESYL ISOBUTYRATE; EI-MS
Formula: C11H14O2
Exact mass: 178.09938
Instrument type: EI-MS
m/z	relative intensity
26	10
27	121
39	82
40	11
41	103
42	23
43	625
44	18
50	19
51	57
52	29
53	38
55	13
63	17
65	26
70	82
71	169
77	141
78	49
79	61
80	24
90	20
91	41
107	246
108	999
109	76
178	110
179	13
