Mass spectrum: GLYCINE ANHYDRIDE; EI-MS
Name: CYCLOGLYCYLGLYCINE
Formula: C4H6N2O2
Exact mass: 114.04293
Instrument type: EI-MS
m/z	relative intensity
15	26
26	10
27	97
29	405
30	905
31	19
42	23
43	347
44	359
45	23
55	19
56	58
57	17
58	43
59	25
71	456
72	22
85	13
86	84
114	999
115	64
