Mass spectrum: TRIDECANAL; EI-MS
Formula: C13H26O
Exact mass: 198.19837
Instrument type: EI-MS
m/z	relative intensity
41	95
42	98
44	558
45	341
54	197
55	659
56	419
57	702
58	47
66	101
67	526
68	611
70	294
71	216
80	122
81	312
82	999
83	494
84	154
91	35
94	58
95	375
96	529
97	332
98	86
99	64
107	58
109	158
110	235
111	89
123	92
124	132
152	173
154	96
