Mass spectrum: N-BENZYLBIS(TRIMETHYLSILYL)AMINE; EI-MS
Formula: C13H25NSi2
Exact mass: 251.15255
Instrument type: EI-MS
m/z	relative intensity
43	30
45	75
59	137
73	414
74	36
86	105
91	99
100	65
111	59
121	25
130	43
135	204
136	30
162	327
163	52
174	171
175	33
176	23
236	999
237	241
238	96
251	272
252	70
253	25
