Mass spectrum: 1-BROMO-4-NITROBENZENE; EI-MS
Formula: C6H4BrNO2
Exact mass: 200.94254
Instrument type: EI-MS
m/z	relative intensity
49	33
50	471
51	68
61	24
62	27
63	59
64	53
73	60
74	273
75	831
76	670
77	47
92	29
117	19
119	18
129	28
131	28
143	212
144	13
145	203
146	13
154	11
155	774
156	63
157	747
158	54
171	344
172	26
173	335
174	24
185	25
187	25
201	999
202	78
203	988
204	73
