Mass spectrum: 1-METHOXY-2-PROPANOL; EI-MS
Formula: C4H10O2
Exact mass: 90.06808
Instrument type: EI-MS
m/z	relative intensity
27	71
28	35
29	41
31	17
45	999
46	87
47	348
75	65
