Mass spectrum: CHOLESTA-3,5-DIEN-7-ONE; EI-MS
Formula: C27H42O
Exact mass: 382.32357
Instrument type: EI-MS
m/z	relative intensity
43	23
55	23
57	37
67	2
69	23
71	19
79	32
81	10
82	19
83	28
85	14
91	4
93	69
94	14
95	51
97	3
105	42
106	14
107	69
108	3
109	83
110	14
111	19
113	1
119	69
121	51
122	14
123	2
125	14
129	14
131	19
133	7
134	130
135	60
136	32
141	2
143	19
145	88
146	37
147	8
148	28
149	23
157	28
158	3
159	245
160	74
161	324
162	6
163	19
173	134
174	999
175	24
176	46
185	37
187	435
188	7
193	37
199	42
201	32
206	3
213	55
214	28
215	42
219	2
220	19
227	60
228	37
229	7
230	19
241	37
242	37
243	2
245	14
251	19
255	28
267	1
268	23
269	319
280	79
281	1
297	19
298	14
339	9
340	6
341	19
349	9
354	9
364	2
365	9
366	9
367	167
368	6
369	19
376	9
379	9
380	2
381	37
382	977
383	435
384	79
