Mass spectrum: 3-ISOPROPYL-6-METHYL-2,5-PIPERAZINEDIONE; EI-MS
Name: CYCLOALANYLVALINE
Formula: C8H14N2O2
Exact mass: 170.10553
Instrument type: EI-MS
m/z	relative intensity
43	12
44	191
45	10
56	10
57	10
69	10
71	24
72	137
83	11
84	43
85	19
99	160
100	25
111	13
112	15
113	999
114	13
127	147
155	10
170	14
