Mass spectrum: ACETALDEHYDE DIPROPYL ACETAL; EI-MS
Formula: C8H18O2
Exact mass: 146.13068
Instrument type: EI-MS
m/z	relative intensity
15	19
26	14
27	179
29	84
31	79
39	66
41	190
42	50
43	657
44	48
45	999
46	20
47	31
57	11
58	51
59	16
61	31
87	683
88	41
89	70
131	142
