Mass spectrum: (3-PHENYLTHIOPROPYL)TRIMETHYLSILANE; EI-MS
Name: PHENYL-3-TRIMETHYLSILYLPROPYL SULFIDE
Formula: C12H20SSi
Exact mass: 224.1055
Instrument type: EI-MS
m/z	relative intensity
42	28
43	51
44	33
45	141
51	31
59	80
65	28
72	33
73	999
74	90
75	53
77	51
91	50
109	37
110	34
118	55
151	59
167	323
168	45
169	30
181	30
182	59
209	559
210	105
211	56
224	143
225	30
