Mass spectrum: 1-METHYLPYPERAZINE; EI-MS
Formula: C5H12N2
Exact mass: 100.10005
Instrument type: EI-MS
m/z	relative intensity
26	18
27	82
28	115
29	16
30	136
40	27
41	66
42	41
43	584
44	210
45	19
54	3
55	26
56	262
57	159
58	999
59	60
70	74
71	34
99	2
100	588
101	36
