Mass spectrum: FURAN; EI-MS
Formula: C4H4O
Exact mass: 68.02621
Instrument type: EI-MS
m/z	relative intensity
26	14
28	39
29	101
34	17
37	73
38	122
39	999
40	127
41	19
42	76
43	23
44	12
68	882
69	42
