Mass spectrum: HEXANAL BENZYL PENTYL ACETAL; EI-MS
Formula: C18H30O2
Exact mass: 278.22458
Instrument type: EI-MS
m/z	relative intensity
27	22
29	37
39	19
41	59
42	15
43	131
51	11
55	34
57	51
65	32
71	26
77	13
79	15
82	10
83	47
90	11
91	999
92	102
101	23
107	20
108	13
207	34
