Mass spectrum: 2-ACETYLFURAN; EI-MS
Formula: C6H6O2
Exact mass: 110.03678
Instrument type: EI-MS
m/z	relative intensity
14	15
15	63
26	18
27	42
29	41
37	57
38	104
39	298
40	31
41	15
42	38
43	186
50	34
51	41
52	10
53	38
67	41
68	31
95	999
96	57
110	375
111	28
