Mass spectrum: BENZALDEHYDE ETHYL ISOPENTYL ACETAL; EI-MS
Name: BENZALDEHYDE ETHYL ISOAMYL ACETAL
Formula: C14H22O2
Exact mass: 222.16198
Instrument type: EI-MS
m/z	relative intensity
17	10
27	51
28	14
29	12
31	10
39	34
41	110
42	1
43	259
47	10
50	12
51	5
52	12
55	29
70	13
71	21
72	13
75	13
76	10
77	20
78	35
79	303
80	16
89	1
90	15
91	29
105	143
106	2
107	607
108	48
135	999
136	11
177	179
178	20
