Mass spectrum: 1-METHYLHEPTYL ACETATE; EI-MS
Name: ACETIC ACID 1-METHYLHEPTYL ESTER
Formula: C10H20O2
Exact mass: 172.14633
Instrument type: EI-MS
m/z	relative intensity
15	38
27	93
28	22
29	110
39	59
41	179
42	82
43	999
44	38
45	56
53	11
55	119
56	92
57	69
58	59
59	22
61	34
69	50
70	104
71	36
82	11
83	44
84	25
87	188
97	15
102	15
112	44
