Mass spectrum: 3-DECANONE; EI-MS
Formula: C10H20O
Exact mass: 156.15142
Instrument type: EI-MS
m/z	relative intensity
26	12
27	206
29	510
39	93
41	277
42	70
43	315
44	10
53	20
55	105
56	27
57	999
58	39
67	20
69	10
71	15
72	606
73	110
82	12
83	10
85	102
109	23
127	221
128	17
156	22
