Mass spectrum: 1-(4-METHYLENECYCLOHEXYL)-5-METHYL-4-HEXEN-1-OL; EI-MS
Formula: C14H24O
Exact mass: 208.18272
Instrument type: EI-MS
m/z	relative intensity
42	999
43	271
53	192
55	514
56	152
57	206
67	535
68	156
69	812
70	104
79	310
81	285
82	938
83	162
91	253
92	145
93	276
94	141
95	809
96	116
105	199
106	363
107	136
119	168
123	163
147	219
151	294
161	17
165	112
166	19
175	27
190	66
191	16
193	12
208	46
209	11
