Mass spectrum: 3BETA-ACETOXY-9ALPHA,11ALPHA-EPOXY-5ALPHA-LANOST-7-ENE; EI-MS
Formula: C32H52O3
Exact mass: 484.39165
Instrument type: EI-MS
m/z	relative intensity
206	100
221	100
303	200
343	50
344	50
371	300
455	800
456	3
469	150
484	999
485	350
