Mass spectrum: 4,5-DIMETHYLTHIAZOLE; EI-MS
Formula: C5H7NS
Exact mass: 113.02992
Instrument type: EI-MS
m/z	relative intensity
27	40
39	71
41	71
42	90
45	311
46	61
47	20
52	20
53	250
54	110
55	61
58	61
59	170
60	30
61	10
65	20
68	29
71	939
72	250
73	92
74	10
80	50
84	20
85	509
86	730
87	90
88	41
98	310
99	10
100	10
112	369
113	999
114	210
115	189
116	11
