Mass spectrum: ACETIC ACID META-TOLYL ESTER; EI-MS
Formula: C9H10O2
Exact mass: 150.06808
Instrument type: EI-MS
m/z	relative intensity
43	101
77	31
78	9
79	54
80	37
90	35
91	21
107	204
108	999
109	87
150	178
151	19
