Mass spectrum: LONGIFOLENE; EI-MS
Name: DECAHYDRO-4,8,8-TRIMETHYL-9-METHYLENE-1,4-METHANOAZULENE
Formula: C15H24
Exact mass: 204.1878
Instrument type: EI-MS
m/z	relative intensity
15	17
27	206
28	43
29	304
39	405
40	48
41	999
42	66
43	158
50	18
51	98
52	48
53	242
54	38
55	554
56	77
57	57
63	34
64	21
65	194
66	65
67	405
68	41
69	235
70	24
71	17
77	418
78	103
79	610
80	102
81	356
82	137
83	82
89	16
91	940
92	230
93	681
94	775
95	567
96	74
97	27
103	67
104	44
105	742
106	252
107	684
108	421
109	453
110	55
111	34
115	85
116	33
117	109
118	32
119	500
120	209
121	345
122	164
123	80
128	34
129	34
130	18
131	65
132	26
133	454
134	187
135	440
136	108
137	76
138	19
145	41
146	15
147	242
148	126
149	56
150	25
159	13
161	911
162	150
163	73
175	128
176	65
177	11
189	480
190	60
204	375
205	53
