Mass spectrum: ETHYL BROMOACETATE; EI-MS
Formula: C4H7BrO2
Exact mass: 165.96294
Instrument type: EI-MS
m/z	relative intensity
41	80
42	178
43	225
44	154
45	218
59	999
60	290
61	218
70	97
73	33
87	43
88	398
89	35
93	73
94	43
95	68
96	30
103	27
121	125
123	133
138	53
140	58
166	21
168	30
