Mass spectrum: KARAHANAENONE; EI-MS
Name: 2,2,5-TRIMETHYL-4-CYCLOHEPTEN-1-ONE
Formula: C10H16O
Exact mass: 152.12012
Instrument type: EI-MS
m/z	relative intensity
42	385
43	183
53	140
55	187
56	93
67	476
68	224
69	146
70	266
77	73
79	148
81	446
82	129
83	71
84	65
91	71
93	104
94	89
95	648
96	486
97	264
109	525
110	213
137	198
152	999
153	117
