Mass spectrum: 4-CHLORO-4'-HYDROXYBIPHENYL; EI-MS
Formula: C12H9ClO
Exact mass: 204.03419
Instrument type: EI-MS
m/z	relative intensity
39	83
50	48
51	48
55	5
62	48
63	95
74	48
75	6
84	95
102	143
113	48
115	1
139	190
140	71
141	143
149	6
168	95
175	48
204	999
205	26
206	320
207	83
