Mass spectrum: 6-ETHYL-2-METHYL-4H-PYRIDO(1,2-A)PYRIMIDIN-4-ONE; EI-MS
Formula: C11H12N2O
Exact mass: 188.09496
Instrument type: EI-MS
m/z	relative intensity
39	186
40	46
50	60
51	13
52	117
63	37
65	57
66	5
67	49
73	60
76	46
77	34
78	686
79	257
86	51
91	4
92	71
94	46
104	111
106	14
107	40
121	29
132	143
133	3
143	34
144	29
145	457
146	10
149	20
159	657
160	657
161	7
171	200
172	46
173	26
174	5
187	154
188	999
189	126
190	7
