Mass spectrum: 6-METHYL-5-HEPTEN-2-ONE; EI-MS
Formula: C8H14O
Exact mass: 126.10447
Instrument type: EI-MS
m/z	relative intensity
15	64
26	11
27	160
29	69
38	14
39	225
40	29
41	548
42	55
43	999
44	17
45	10
50	13
51	26
52	12
53	91
54	12
55	318
56	75
57	13
58	154
65	15
67	119
68	125
69	306
70	15
71	117
77	14
79	10
81	14
82	13
83	66
93	78
108	207
109	16
111	117
126	61
