Mass spectrum: META-FLUOROBENZOIC ACID ETHYL ESTER; EI-MS
Name: ETHYL META-FLUOROBENZOATE
Formula: C9H9FO2
Exact mass: 168.05866
Instrument type: EI-MS
m/z	relative intensity
27	66
28	28
29	98
45	78
50	39
51	25
68	13
69	29
74	17
75	158
76	13
94	27
95	485
96	47
123	999
124	92
140	338
141	25
150	20
153	18
168	103
169	8
