Mass spectrum: ETHYL PHENYLACETATE; EI-MS
Formula: C10H12O2
Exact mass: 164.08373
Instrument type: EI-MS
m/z	relative intensity
27	66
29	190
30	10
39	6
41	14
43	10
51	27
63	4
64	13
65	159
77	12
89	5
90	37
91	999
92	118
105	2
119	21
164	164
165	18
