Mass spectrum: ROTIORIN; EI-MS
Formula: C23H24O5
Exact mass: 380.16237
Instrument type: EI-MS
m/z	relative intensity
381	270
380	999
339	200
338	920
337	710
309	70
297	100
295	110
282	200
281	130
165	120
152	80
