Mass spectrum: ACETIC ACID 3-METHOXYBUTYL ESTER; EI-MS
Formula: C7H14O3
Exact mass: 146.09429
Instrument type: EI-MS
m/z	relative intensity
15	46
27	30
28	16
29	108
31	142
33	16
39	26
41	105
42	36
43	469
44	19
45	34
54	11
55	105
56	37
57	15
58	30
59	999
60	33
61	21
71	196
72	21
73	15
75	10
85	16
86	64
87	10
115	10
