Mass spectrum: 5,7-DIMETHYL-1,2,3,4-TETRAHYDROPYRIMIDO(1,6-A)INDOLE; EI-MS
Formula: C13H16N2
Exact mass: 200.13135
Instrument type: EI-MS
m/z	relative intensity
51	12
77	21
115	45
128	1
130	10
143	78
156	67
157	7
158	999
159	102
170	56
171	34
199	19
200	360
