Mass spectrum: ETHYLBENZENE; EI-MS
Formula: C8H10
Exact mass: 106.07825
Instrument type: EI-MS
m/z	relative intensity
39	65
50	53
51	107
52	4
62	20
63	49
65	109
77	9
78	80
79	42
89	28
91	999
92	76
103	31
105	45
106	27
107	25
