Mass spectrum: 3,4,5-TRIMETHYL-ISOXAZOLE; EI-MS
Formula: C6H9NO
Exact mass: 111.06841
Instrument type: EI-MS
m/z	relative intensity
111	999
110	160
96	860
68	850
55	580
43	850
42	710
41	80
