Mass spectrum: 2,6-DI(ALPHA-METHYLBENZYL)PHENOL; EI-MS
Formula: C22H22O
Exact mass: 302.16707
Instrument type: EI-MS
m/z	relative intensity
43	289
44	497
45	116
51	16
55	241
56	135
57	236
69	17
71	127
77	209
78	208
79	11
83	122
91	153
103	199
104	32
105	283
119	85
149	353
165	14
181	85
197	155
209	357
223	15
224	230
287	999
288	216
302	71
303	164
