Mass spectrum: BENZAMIDE; EI-MS
Formula: C7H7NO
Exact mass: 121.05276
Instrument type: EI-MS
m/z	relative intensity
27	24
28	193
38	17
39	34
41	16
44	49
50	112
51	247
52	33
59	46
74	33
75	30
76	121
77	878
78	85
103	258
104	24
105	999
106	64
121	688
122	49
