Mass spectrum: ISOBUTYL ACETATE; EI-MS
Formula: C6H12O2
Exact mass: 116.08373
Instrument type: EI-MS
m/z	relative intensity
29	13
41	64
42	10
43	999
44	23
55	25
56	508
57	47
61	52
71	71
73	360
74	33
86	47
116	10
