Mass spectrum: ACETAMIDE; EI-MS
Formula: C2H5NO
Exact mass: 59.03711
Instrument type: EI-MS
m/z	relative intensity
12	13
13	17
14	56
15	207
16	35
27	31
28	162
29	24
30	21
31	38
38	61
39	109
40	323
41	625
42	294
43	562
44	746
45	20
59	999
60	61
