Mass spectrum: 4-BUTOXYBENZOIC ACID METHYL ESTER; EI-MS
Formula: C12H16O3
Exact mass: 208.10994
Instrument type: EI-MS
m/z	relative intensity
45	15
50	48
51	27
53	2
55	33
56	39
57	90
63	4
64	48
65	141
66	15
67	2
70	21
75	15
76	42
77	1
79	12
82	12
91	27
92	7
93	150
94	15
95	15
103	3
107	21
109	15
115	15
119	2
120	42
121	969
122	162
123	3
124	12
135	18
136	15
141	2
147	12
150	12
151	78
152	999
153	93
165	18
177	87
208	35
209	42
210	15
