Mass spectrum: 2-METHYL-6-METHYLENE-7-OCTEN-4-OL; EI-MS
Formula: C10H18O
Exact mass: 154.13577
Instrument type: EI-MS
m/z	relative intensity
41	396
42	44
43	412
44	71
45	210
51	19
52	14
53	114
55	30
57	132
58	37
65	22
66	19
67	272
68	999
69	565
70	44
71	47
77	14
79	32
80	24
81	13
83	12
85	171
86	22
87	72
93	37
97	19
98	31
121	12
136	34
154	1
