Mass spectrum: TRIMETHYLSILYLMETHANETHIOL; EI-MS
Formula: C4H12SSi
Exact mass: 120.0429
Instrument type: EI-MS
m/z	relative intensity
42	33
43	249
44	629
45	254
46	50
47	39
48	38
53	18
55	19
57	19
58	72
59	252
60	23
61	29
64	43
72	23
73	999
74	115
75	144
77	164
105	286
106	27
107	26
117	50
119	49
120	153
121	25
