Mass spectrum: 4-BROMO-2-(4-FLUOROPHENYL)PYRIMIDINE; EI-MS
Formula: C10H6BrFN2
Exact mass: 251.96984
Instrument type: EI-MS
m/z	relative intensity
46	10
50	11
52	38
57	3
61	15
62	18
68	18
73	3
74	25
75	116
76	11
79	1
80	19
81	11
82	15
86	3
86.5	18
88	10
94	68
95	17
102	15
112.5	10
121	140
122	20
123	17
126	24
127	15
136	1
146	158
147	11
173	999
174	11
208	10
210	10
252	425
253	5
254	453
255	52
265	15
