Mass spectrum: N-1-BUTENYL-N-(1,2,2-TRIMETHYLPROPYL)PROPIONAMIDE; EI-MS
Formula: C13H25NO
Exact mass: 211.19361
Instrument type: EI-MS
m/z	relative intensity
27	133
29	588
39	180
41	652
42	247
43	472
44	80
53	125
54	80
55	456
56	282
57	999
68	83
69	83
70	208
71	68
82	321
85	68
96	103
98	904
99	460
140	201
154	947
155	144
182	61
211	77
212	104
