Mass spectrum: DIETHYLSILANE; EI-MS
Formula: C4H12Si
Exact mass: 88.07083
Instrument type: EI-MS
m/z	relative intensity
28	8
31	119
43	122
44	1
45	16
56	23
57	43
58	999
59	825
60	81
61	27
86	17
87	171
88	168
89	18
