Mass spectrum: 10-METHYLDODECANOIC ACID TRIMETHYLSILYL ESTER; EI-MS
Formula: C16H34O2Si
Exact mass: 286.23281
Instrument type: EI-MS
m/z	relative intensity
43	276
45	113
55	242
57	10
69	135
73	999
74	102
75	81
95	77
117	726
129	242
131	14
132	278
145	144
271	226
272	66
