Mass spectrum: METHYL P-AMINOBENZOATE; EI-MS
Formula: C8H9NO2
Exact mass: 151.06333
Instrument type: EI-MS
m/z	relative intensity
28	110
38	70
39	210
41	80
52	80
63	70
64	60
65	380
91	60
92	320
120	999
121	100
151	520
152	70
