Mass spectrum: 1-METHYL-5-FLUOROURACIL; EI-MS
Formula: C5H5FN2O2
Exact mass: 144.03351
Instrument type: EI-MS
m/z	relative intensity
28	140
31	80
41	40
42	5
43	50
44	80
45	70
70	1
71	40
72	160
73	210
74	1
100	80
101	260
102	100
114	0
115	50
116	30
144	999
145	160
