Mass spectrum: 2-(2,3-DITRIMETHYLSILYLOXYBUTOXY)-N-(2-(DIETHYLAMINO)ETHYL)-3-PYRIDINECARBOXAMIDE; EI-MS
Formula: C22H43N3O4Si2
Exact mass: 469.27921
Instrument type: EI-MS
m/z	relative intensity
43	5
58	4
72	7
73	13
84	3
85	4
86	999
87	59
99	170
100	43
129	42
142	5
143	3
147	17
205	4
211	2
217	9
233	7
237	6
310	21
366	17
367	2
371	1
454	12
455	2
