Mass spectrum: PHENYLETHYL PROPIONATE; EI-MS
Name: 2-PHENYLETHYL PROPIONATE
Formula: C11H14O2
Exact mass: 178.09938
Instrument type: EI-MS
m/z	relative intensity
26	10
27	79
28	21
29	239
39	34
50	13
51	47
52	11
57	488
58	16
63	20
65	59
77	70
78	46
79	29
89	15
91	118
92	14
103	53
104	999
105	157
