Mass spectrum: N-(ACETOXYACETYL)-N-BUTYLBENZAMIDE; EI-MS
Formula: C15H19NO4
Exact mass: 277.13141
Instrument type: EI-MS
m/z	relative intensity
27	91
28	88
29	89
39	54
41	84
42	54
43	859
50	62
51	277
72	52
73	71
76	60
77	983
78	90
101	57
104	70
105	999
106	288
148	118
160	61
162	77
178	66
204	118
216	158
217	131
218	87
277	3
278	6
