Mass spectrum: N-ACETYL-VALYL-GLYCYL-ALANINE METHYLESTER; EI-MS
Formula: C13H23N3O5
Exact mass: 301.16377
Instrument type: EI-MS
m/z	relative intensity
15	121
27	41
28	106
29	5
30	274
31	11
39	22
41	5
42	56
43	240
44	325
45	2
54	11
55	177
56	91
57	7
58	73
59	24
60	48
69	3
70	44
71	21
72	999
73	6
83	27
84	16
85	40
86	2
98	17
99	27
100	70
101	2
102	22
104	54
113	87
114	67
115	240
116	18
127	27
128	1
142	127
143	13
145	25
156	1
161	23
172	12
173	34
199	12
200	15
242	91
243	14
259	2
301	11
302	11
