Mass spectrum: DIMETHYLHYDRAZONE ACETONE; EI-MS
Name: ACETONE DIMETHYLHYDRAZONE
Formula: C5H12N2
Exact mass: 100.10005
Instrument type: EI-MS
m/z	relative intensity
28	235
29	106
30	115
31	2
38	15
39	129
40	59
41	23
42	589
43	259
44	999
45	71
46	25
54	34
55	26
56	71
57	188
58	88
59	58
60	3
69	32
70	16
71	9
72	1
73	14
74	16
84	11
85	21
86	18
99	168
100	824
101	59
