Mass spectrum: N-METHYLFLINDERSINE; EI-MS
Name: 2,2,6-TRIMETHYL-2H-PYRANO(3,2-C)QUINOLIN-5(6H)-ONE
Formula: C15H15NO2
Exact mass: 241.11028
Instrument type: EI-MS
m/z	relative intensity
39	24
43	20
51	24
63	20
64	14
65	12
76	14
77	67
78	25
79	17
91	13
92	12
128	14
132	19
134	14
154	19
183	23
184	12
198	20
200	23
211	12
212	12
224	22
225	15
226	999
227	180
228	19
240	40
241	208
242	37
