Mass spectrum: 2-METHYL-1-PROPYLAMINE; EI-MS
Name: ISO-BUTYLAMINE
Formula: C4H11N
Exact mass: 73.08915
Instrument type: EI-MS
m/z	relative intensity
15	10
18	10
27	42
28	7
29	21
30	999
31	22
39	4
41	60
42	15
43	13
56	2
57	22
59	17
72	10
73	74
