Mass spectrum: CITRONELLAL DIETHYL ACETAL; EI-MS
Formula: C14H28O2
Exact mass: 228.20893
Instrument type: EI-MS
m/z	relative intensity
19	18
26	11
27	193
29	501
30	13
31	69
39	106
40	29
41	811
42	60
43	241
44	110
45	90
47	968
48	17
51	16
53	112
54	26
55	332
56	83
57	215
58	14
59	83
60	13
61	11
65	16
66	17
67	272
68	71
69	615
70	58
71	261
72	54
73	770
76	24
77	29
79	37
80	91
81	730
82	266
83	227
84	37
85	53
87	42
91	15
92	10
93	79
94	29
95	486
96	51
97	102
98	24
99	333
100	296
101	39
103	999
104	50
105	11
107	37
108	13
109	106
110	72
111	65
112	108
113	27
115	26
121	937
122	87
123	87
125	56
126	21
136	134
137	145
138	106
139	244
140	23
143	102
144	12
167	54
182	90
183	39
