Mass spectrum: O-ISOPENTYLHYDROXYLAMINE; EI-MS
Formula: C5H13NO
Exact mass: 103.09971
Instrument type: EI-MS
m/z	relative intensity
39	142
40	34
41	333
42	15
43	999
44	75
45	34
46	6
53	24
54	8
55	200
56	8
57	58
58	58
69	17
70	1
71	250
72	17
103	9
