Mass spectrum: 1,3-DIAMINOUREA; EI-MS
Name: CARBOHYDRAZIDE
Formula: CH6N4O
Exact mass: 90.05416
Instrument type: EI-MS
m/z	relative intensity
28	182
29	127
30	114
31	47
32	999
33	33
42	38
43	10
44	154
59	51
74	81
90	144
