Mass spectrum: 4-BUTYLANILINE; EI-MS
Formula: C10H15N
Exact mass: 149.12045
Instrument type: EI-MS
m/z	relative intensity
77	62
78	33
79	29
106	999
107	241
120	29
149	200
150	42
