Mass spectrum: HEXANEDIOL DODECANEDIOATE; EI-MS
Name: 2,9-DIOXACYCLOICOSAN-1,10-DIONE
Formula: C18H32O4
Exact mass: 312.23006
Instrument type: EI-MS
m/z	relative intensity
17	29
27	92
28	24
29	191
31	22
39	105
40	16
41	615
42	236
43	279
44	14
45	41
53	63
54	257
55	999
56	142
57	108
58	50
59	28
60	39
67	261
68	82
69	261
70	76
71	99
72	12
73	71
79	31
80	24
81	168
82	658
83	517
84	277
85	87
86	13
87	16
91	16
93	37
94	33
95	53
96	59
97	146
98	455
99	146
100	34
101	149
105	17
107	23
108	27
109	57
110	33
111	93
112	187
113	35
114	28
115	74
119	22
121	15
123	45
124	33
125	66
126	21
127	25
129	80
133	21
134	20
135	69
137	21
138	16
139	12
141	11
142	38
143	21
147	16
148	14
149	52
150	12
151	16
152	196
153	55
155	15
161	20
165	12
166	56
167	36
168	19
193	11
194	57
195	27
210	11
213	364
214	53
215	43
229	85
230	11
265	73
266	12
312	19
