Mass spectrum: PHENYL-MALONIC ACID BIS(TRIMETHYLSILYL) ESTER; EI-MS
Name: DI(TRIMETHYLSILYL) PHENYLMALONATE
Formula: C15H24O4Si2
Exact mass: 324.12131
Instrument type: EI-MS
m/z	relative intensity
43	271
44	47
45	250
47	4
73	999
74	82
75	246
77	12
89	82
90	120
117	43
118	15
119	43
133	64
145	173
147	71
148	118
149	72
163	41
206	14
207	72
234	186
235	24
265	40
266	97
267	22
279	47
281	10
282	16
309	91
310	14
