Mass spectrum: N-(TERT-BUTYL)-2-HEPTANIMINE; EI-MS
Formula: C11H23N
Exact mass: 169.18305
Instrument type: EI-MS
m/z	relative intensity
41	461
42	323
43	325
53	18
54	16
55	135
56	109
57	999
58	437
59	52
69	11
70	232
71	113
72	17
82	17
84	69
96	15
98	142
99	18
113	167
114	66
126	42
154	103
169	14
