Mass spectrum: BUTANAL BUTYL ISOAMYL ACETAL; EI-MS
Name: BUTANAL BUTYL ISOAMYL ACETAL
Formula: C13H28O2
Exact mass: 216.20893
Instrument type: EI-MS
m/z	relative intensity
27	126
28	27
29	230
31	4
39	59
41	296
42	31
43	63
44	32
45	13
53	13
55	26
56	48
57	336
69	11
70	2
71	999
72	62
73	329
74	2
103	28
117	14
129	214
130	2
143	127
144	10
173	112
