Mass spectrum: ISOBUTYRIC ACID; EI-MS
Formula: C4H8O2
Exact mass: 88.05243
Instrument type: EI-MS
m/z	relative intensity
18	51
27	206
28	262
29	37
39	150
41	552
42	105
43	999
44	94
45	95
55	42
71	10
73	181
88	18
