Mass spectrum: BETA-1,2,3,4,5,6-HEXACHLOROCYCLOHEXANE; EI-MS
Formula: C6H6Cl6
Exact mass: 287.86007
Instrument type: EI-MS
m/z	relative intensity
49	171
50	269
51	417
61	198
73	281
74	121
75	245
77	18
83	328
85	357
87	239
96	18
98	118
109	991
111	751
113	17
121	153
123	106
145	227
146	17
147	201
148	118
181	999
182	10
183	979
185	328
217	766
218	13
219	973
220	106
221	470
223	11
252	195
254	304
256	201
290	15
292	115
