Mass spectrum: 1-PHENYLPROPAN-2-ONE; EI-MS
Formula: C9H10O
Exact mass: 134.07316
Instrument type: EI-MS
m/z	relative intensity
39	90
41	20
43	999
44	2
50	30
51	50
62	20
63	1
64	20
65	160
77	30
89	1
90	30
91	900
92	280
105	0
134	550
135	50
