Mass spectrum: METHYL 5-BENZYLOXY-3-OXOPENTANOATE; EI-MS
Formula: C13H16O4
Exact mass: 236.10486
Instrument type: EI-MS
m/z	relative intensity
55	24
70	24
78	22
79	24
80	42
90	32
105	23
106	9
107	235
108	999
109	205
116	3
117	20
130	273
159	19
218	2
219	26
