Mass spectrum: MELLARIL; EI-MS
Name: THIORIDAZINE
Formula: C21H26N2S2
Exact mass: 370.15374
Instrument type: EI-MS
m/z	relative intensity
55	29
68	29
69	9
70	14
96	29
97	19
98	999
99	8
102	14
125	34
126	84
127	1
167	14
185	49
198	19
210	1
211	24
212	14
226	29
229	2
244	39
245	19
258	29
259	2
370	94
371	19
372	9
