Mass spectrum: URACIL; EI-MS
Name: 2,4(1H,3H)-PYRIMIDINEDIONE
Formula: C4H4N2O2
Exact mass: 112.02728
Instrument type: EI-MS
m/z	relative intensity
14	89
15	20
16	240
17	409
26	51
27	44
28	374
29	50
36	167
38	87
39	51
40	279
41	304
42	586
43	48
44	96
45	87
59	12
60	32
68	184
69	698
70	79
73	25
88	22
112	999
113	71
116	50
