Mass spectrum: 1-BUTYL-2-ETHYLHYDRAZINE; EI-MS
Formula: C6H16N2
Exact mass: 116.13135
Instrument type: EI-MS
m/z	relative intensity
27	115
28	87
29	192
30	33
31	211
32	42
39	38
40	1
41	129
42	77
43	83
44	27
45	307
46	13
55	16
56	2
57	83
58	25
59	269
60	2
70	17
71	115
72	19
73	999
74	48
87	15
99	13
101	9
114	30
115	15
116	461
117	61
