Mass spectrum: METHYL LEVULINATE; EI-MS
Formula: C6H10O3
Exact mass: 130.06299
Instrument type: EI-MS
m/z	relative intensity
15	129
26	25
27	101
29	47
31	14
39	21
41	18
42	72
43	999
44	21
45	24
55	168
56	41
57	88
59	121
71	62
87	51
88	93
98	54
99	217
100	13
115	181
130	20
