Mass spectrum: 1,3,4,5-TETRA-O-ACETYL-6-DEOXY-2-O-METHYLGALACTITOL; EI-MS
Name: 1,3,4,5-TETRA-O-ACETYL-2-O-METHYLFUCITOL
Formula: C15H24O9
Exact mass: 348.14203
Instrument type: EI-MS
m/z	relative intensity
43	999
45	30
55	35
58	50
74	40
87	80
99	150
113	80
117	600
129	60
159	40
173	30
201	30
275	50
