Mass spectrum: 1-CARBOMETHOXY-4-FORMYLAZULENE; EI-MS
Formula: C13H10O3
Exact mass: 214.06299
Instrument type: EI-MS
m/z	relative intensity
31	14
41	16
43	18
50	1
51	15
74	20
75	25
76	2
77	34
101	20
115	21
126	8
127	131
141	21
143	24
154	9
155	963
156	106
170	40
171	15
183	944
184	113
186	563
187	7
214	999
215	130
