Mass spectrum: METHYL 12,13-BIS(TRIMETHYLSILOXY)OCTADEC-9(Z)-ENOATE; EI-MS
Formula: C25H52O4Si2
Exact mass: 472.34041
Instrument type: EI-MS
m/z	relative intensity
550	44
670	72
690	34
730	654
740	24
750	84
790	34
810	70
830	86
890	18
910	22
930	46
950	95
970	32
980	16
990	21
1030	154
1070	21
1090	28
1130	18
1170	57
1210	22
1230	42
1250	20
1290	349
1300	74
1310	23
1330	42
1340	20
1350	24
1360	19
1370	17
1430	28
1460	27
1470	225
1480	37
1490	43
1500	21
1550	66
1570	36
1590	53
1610	19
1710	18
1720	94
1730	999
1740	143
1750	50
1770	35
1780	32
1850	217
1860	59
1870	36
1910	28
1950	38
1990	24
2100	35
2120	22
2130	102
2140	24
2170	17
2250	35
2270	16
2430	21
2470	28
2590	147
2600	37
2610	20
2670	18
2700	341
2710	172
2720	42
2730	21
2750	862
2760	199
2770	97
2780	17
2850	17
2930	24
2980	71
2990	828
3000	185
3010	53
3110	75
3120	20
3150	50
3450	34
3510	19
3610	73
3620	18
3630	19
3820	34
3830	22
4010	34
4410	53
4420	20
4570	28
4580	16
