Mass spectrum: 2-HYDROXY-1-NAPHTHOIC ACID METHYL ESTER; EI-MS
Formula: C12H10O3
Exact mass: 202.06299
Instrument type: EI-MS
m/z	relative intensity
44	215
51	75
62	26
63	13
65	41
71	22
72	41
77	6
87	22
88	37
89	83
113	7
114	392
115	396
116	67
142	27
143	49
144	445
145	30
170	999
171	203
202	301
203	18
