Mass spectrum: 2-PHENYLETHYL ACETATE; EI-MS
Formula: C10H12O2
Exact mass: 164.08373
Instrument type: EI-MS
m/z	relative intensity
43	426
44	12
73	12
78	25
91	86
92	25
103	26
104	999
105	107
