Mass spectrum: ETHYL 3-HYDROXYBUTANOATE; EI-MS
Formula: C6H12O3
Exact mass: 132.07864
Instrument type: EI-MS
m/z	relative intensity
43	232
44	28
45	120
55	2
58	27
60	38
61	35
68	4
69	29
70	867
71	30
72	2
75	149
85	33
86	14
87	999
88	392
89	73
99	263
103	21
114	9
117	362
118	7
119	30
