Mass spectrum: 3-METHYLINDOLE; EI-MS
Formula: C9H9N
Exact mass: 131.0735
Instrument type: EI-MS
m/z	relative intensity
27	43
28	57
38	29
39	58
50	65
51	116
65	105
65.5	65
76	40
77	174
102	63
103	100
104	21
132	53
