Mass spectrum: PROPYL FORMATE; EI-MS
Name: FORMIC ACID PROPYL ESTER
Formula: C4H8O2
Exact mass: 88.05243
Instrument type: EI-MS
m/z	relative intensity
15	43
26	57
27	270
28	37
29	268
30	35
31	999
32	10
38	17
39	108
40	32
41	225
42	781
43	121
45	76
46	20
47	89
57	45
59	38
