Mass spectrum: METHYL CROTONATE; EI-MS
Formula: C5H8O2
Exact mass: 100.05243
Instrument type: EI-MS
m/z	relative intensity
15	98
26	17
27	33
29	62
37	24
38	69
39	402
40	28
41	470
42	27
53	11
59	54
68	25
69	999
70	49
85	219
100	156
