Mass spectrum: 2-NAPHTHALENEACETIC ACID METHYL ESTER; EI-MS
Formula: C13H12O2
Exact mass: 200.08373
Instrument type: EI-MS
m/z	relative intensity
39	98
50	46
51	89
57	16
58	28
62	46
63	140
64	1
65	65
69	51
70	89
71	31
75	70
76	23
77	14
78	1
86	23
87	51
88	37
89	11
91	61
102	23
113	70
114	5
115	962
116	98
126	23
127	3
128	70
129	32
138	14
139	52
140	230
141	718
142	821
143	5
155	37
156	18
157	18
168	7
169	28
200	999
201	450
202	37
