Mass spectrum: 4-FLUOROACETOPHENONE; EI-MS
Formula: C8H7FO
Exact mass: 138.04809
Instrument type: EI-MS
m/z	relative intensity
12	5
13	8
14	28
15	9
16	2
17	1
18	5
20	0
24	1
25	2
26	10
27	1
28	47
29	5
31	18
32	1
36	2
37	18
38	21
39	3
40	1
41	3
42	26
43	17
44	7
45	7
46	1
47	0
48	4
49	18
50	93
51	5
52	8
53	7
54	1
55	0
56	10
57	42
58	1
60	0
61	10
62	15
63	21
64	0
65	5
66	1
67	1
68	4
69	62
70	12
71	1
72	0
73	18
74	77
75	212
76	1
77	13
78	10
79	3
80	0
81	15
82	3
83	19
84	0
85	5
86	5
87	4
88	0
89	5
90	1
91	7
92	0
93	12
94	40
95	578
96	6
101	3
102	5
103	2
104	0
105	12
106	5
107	13
108	0
109	4
110	5
117	1
118	0
119	2
120	18
121	5
122	1
123	999
136	1
137	1
138	225
