Mass spectrum: 1-BROMO-3,7-DIMETHYL-6-OCTENE; EI-MS
Formula: C10H19Br
Exact mass: 218.06701
Instrument type: EI-MS
m/z	relative intensity
27	70
29	70
39	72
41	435
42	30
43	80
53	53
55	516
56	440
57	190
67	75
68	36
69	999
70	145
71	28
81	45
82	17
83	632
84	45
95	20
97	80
111	28
139	28
148	25
150	30
162	74
164	72
218	50
220	50
