Mass spectrum: ALLYL BUTYRATE; EI-MS
Formula: C7H12O2
Exact mass: 128.08373
Instrument type: EI-MS
m/z	relative intensity
15	24
26	27
27	241
28	23
29	66
31	13
38	26
39	272
40	36
41	627
42	95
43	834
44	30
45	33
55	40
56	10
57	76
58	15
69	14
70	12
71	999
72	47
89	21
100	19
