Mass spectrum: 1,7,7-TRIMETHYL-2-TRIMETHYLSILOXYBICYCLO(2.2.1)HEPTANE; EI-MS
Name: BORNYLOXYTRIMETHYLSILANE
Formula: C13H26OSi
Exact mass: 226.17529
Instrument type: EI-MS
m/z	relative intensity
41	152
45	70
55	73
67	67
73	575
75	355
80	89
81	131
93	181
95	999
96	85
100	178
106	61
107	353
108	103
112	169
113	285
121	392
136	476
137	60
142	133
143	105
144	113
145	58
155	177
211	95
226	286
227	59
