Mass spectrum: TRIPHENYL GUANIDINE; EI-MS
Formula: C19H17N3
Exact mass: 287.14225
Instrument type: EI-MS
m/z	relative intensity
50	32
51	148
52	21
62	31
63	43
65	111
66	95
76	2
77	248
78	28
91	111
92	15
93	598
94	35
103	24
104	3
118	23
167	27
168	20
169	3
193	40
194	999
195	336
196	4
286	128
287	383
288	80
