Mass spectrum: 2-PROPIONYLTHIOPHENE; EI-MS
Formula: C7H8OS
Exact mass: 140.02959
Instrument type: EI-MS
m/z	relative intensity
27	36
28	22
29	227
39	575
40	17
45	43
57	104
58	29
83	267
84	30
85	17
110	10
111	999
112	218
113	187
114	10
139	10
140	474
141	74
142	46
