Mass spectrum: ISOBUTYL VALERATE; EI-MS
Formula: C9H18O2
Exact mass: 158.13068
Instrument type: EI-MS
m/z	relative intensity
27	148
29	283
31	17
39	113
41	383
42	56
43	83
53	11
55	71
56	541
57	737
58	31
60	127
61	15
73	84
85	999
86	71
87	14
102	23
103	210
104	11
115	31
116	20
128	14
