Mass spectrum: METHYL 11-HYDROXYUNDECANOATE; EI-MS
Formula: C12H24O3
Exact mass: 216.17254
Instrument type: EI-MS
m/z	relative intensity
68	36
69	77
74	999
75	361
82	198
83	84
84	424
85	42
87	384
88	26
94	39
95	59
96	229
97	99
98	612
99	59
101	86
109	34
110	62
111	58
112	197
115	48
116	38
122	63
123	54
124	152
125	61
128	49
129	92
130	34
