Mass spectrum: 5-HYDROXY-1,2-DIMETHYL-6-NITROINNOLE; EI-MS
Formula: C10H10N2O3
Exact mass: 206.06914
Instrument type: EI-MS
m/z	relative intensity
39	195
40	16
41	124
42	12
43	195
44	24
45	105
50	3
51	78
52	33
53	72
54	3
55	150
56	206
57	221
60	4
62	17
63	134
64	55
65	6
66	60
67	55
68	28
69	24
70	33
71	110
74	11
75	3
76	33
77	184
78	94
79	4
80	15
81	105
82	32
83	8
84	16
85	55
88	14
89	19
90	165
91	110
92	25
93	2
95	50
96	16
97	60
98	1
99	11
102	23
103	88
104	6
105	33
106	13
107	12
109	3
111	32
115	16
116	116
117	14
118	55
119	21
123	18
125	1
129	37
130	260
131	372
132	37
133	66
137	15
144	11
145	43
146	40
147	21
148	120
149	3
150	11
159	39
160	42
161	8
173	50
176	110
189	20
205	3
206	999
207	120
