Mass spectrum: 1,2-EPOXY MENTHANE; EI-MS
Formula: C10H18O
Exact mass: 154.13577
Instrument type: EI-MS
m/z	relative intensity
15	120
18	20
25	20
26	44
27	100
28	360
29	5
30	4
31	5
37	5
38	20
39	50
40	105
41	650
42	200
43	86
44	310
45	100
50	60
51	17
52	35
53	250
54	135
55	79
56	640
57	220
58	180
59	13
62	5
63	17
64	5
65	7
66	30
67	460
68	290
69	86
70	220
71	770
72	90
73	13
74	20
75	13
76	15
77	36
78	35
79	110
80	40
81	44
82	215
83	590
84	545
85	29
86	50
87	5
91	100
92	3
93	320
94	80
95	515
96	16
97	210
98	140
99	30
105	41
106	30
107	60
108	180
109	13
110	160
111	999
112	140
113	4
119	15
121	90
122	10
123	6
124	5
125	170
126	110
127	1
129	10
135	10
136	140
137	2
138	50
139	370
140	35
141	1
154	50
155	5
