Mass spectrum: 2,8-DIMETHYL-5-(2-(6-METHYL-3-PYRIDYL)ETHYL)-1,2,3,4-TETRAHYDRO-GAMMA-CARBOLINE; EI-MS
Formula: C21H25N3
Exact mass: 319.20485
Instrument type: EI-MS
m/z	relative intensity
42	13
43	62
44	10
77	1
105	14
106	10
115	10
120	5
157	726
158	87
170	999
171	13
213	160
261	51
276	429
277	8
318	350
319	690
