Mass spectrum: 4-OXO-4H-PYRIDO(1,2-A)PYRIMIDINE-3-CARBOXYLIC ACID ETHYL ESTER; EI-MS
Formula: C11H10N2O3
Exact mass: 218.06914
Instrument type: EI-MS
m/z	relative intensity
39	82
50	32
51	191
52	9
53	162
63	65
64	50
65	2
66	29
67	9
68	9
72.5	1
76	18
77	26
78	999
79	21
80	9
90	124
91	32
104	1
105	397
106	24
116	3
117	5
118	412
119	38
144	24
145	32
146	868
147	88
162	162
163	2
172	6
173	882
174	124
175	2
190	74
191	18
218	691
219	9
220	6
