Mass spectrum: (2S,3R)-BUTAN-1,2,3,4-TETRAOL 2,4-ISOPROPYLIDENE ACETAL; EI-MS
Formula: C7H14O4
Exact mass: 162.08921
Instrument type: EI-MS
m/z	relative intensity
43	113
58	27
59	999
61	5
69	59
74	63
87	50
102	11
105	27
119	32
131	145
137	3
147	222
148	23
163	23
