Mass spectrum: TRANS-1,2-CYCLOHEXANEDIOL; EI-MS
Formula: C6H12O2
Exact mass: 116.08373
Instrument type: EI-MS
m/z	relative intensity
41	605
42	420
44	365
57	91
69	360
70	999
83	360
98	44
116	160
