Mass spectrum: (E)-3,7-DIMETHYL-2,6-OCTADIENAL; EI-MS
Name: GERANIAL
Formula: C10H16O
Exact mass: 152.12012
Instrument type: EI-MS
m/z	relative intensity
41	159
56	16
59	87
67	2
68	15
69	999
70	63
79	1
80	26
81	61
82	56
83	4
84	403
85	16
94	318
95	6
96	20
97	13
107	10
108	3
109	142
110	32
119	37
123	10
124	16
134	37
137	96
152	16
153	12
