Mass spectrum: PENTADECANE; EI-MS
Formula: C15H32
Exact mass: 212.2504
Instrument type: EI-MS
m/z	relative intensity
41	31
43	439
55	57
56	102
57	999
58	37
69	54
70	90
71	604
83	28
84	58
85	335
97	11
98	28
99	64
112	28
113	44
126	18
127	31
141	35
155	8
168	11
212	24
