Mass spectrum: ETHYL PHENYLACETATE; EI-MS
Formula: C10H12O2
Exact mass: 164.08373
Instrument type: EI-MS
m/z	relative intensity
15	33
26	39
27	155
28	35
29	338
30	26
38	21
39	127
40	10
41	25
42	10
43	24
45	12
46	9
50	28
51	57
52	19
53	5
61	7
62	27
63	82
64	26
65	184
66	10
74	6
77	14
78	7
79	8
89	64
90	43
91	999
92	111
105	18
118	8
119	17
164	116
165	13
