Mass spectrum: 5-PROPYL-2-PYRAZOLINE; EI-MS
Formula: C6H12N2
Exact mass: 112.10005
Instrument type: EI-MS
m/z	relative intensity
26	7
27	52
28	32
29	2
30	7
39	36
41	50
42	22
43	32
53	6
54	6
55	1
56	9
68	32
69	999
70	4
83	7
112	92
113	8
