Mass spectrum: 1-BUTYLBICYCLO(3.2.2)NONA-3,6,8-TRIEN-2-ONE; EI-MS
Formula: C13H16O
Exact mass: 188.12012
Instrument type: EI-MS
m/z	relative intensity
131	999
146	253
160	105
172	5
188	177
