Mass spectrum: ALLYL PHENYLACETATE; EI-MS
Formula: C11H12O2
Exact mass: 176.08373
Instrument type: EI-MS
m/z	relative intensity
18	12
27	29
28	15
29	15
38	15
39	155
40	14
41	262
50	12
51	32
62	10
63	44
64	13
65	137
89	37
90	28
91	999
92	108
176	62
