Mass spectrum: PROPYL ACETATE; EI-MS
Formula: C5H10O2
Exact mass: 102.06808
Instrument type: EI-MS
m/z	relative intensity
18	15
26	15
41	60
42	10
43	999
44	20
45	10
55	32
56	410
57	60
58	20
61	13
68	40
69	685
70	70
71	29
79	15
97	20
101	15
