Mass spectrum: 3-(3-METHYL-3-BUTENYL)HEPTA-2,6-DIONE; EI-MS
Formula: C12H20O2
Exact mass: 196.14633
Instrument type: EI-MS
m/z	relative intensity
43	33
71	170
72	26
85	58
86	23
93	71
95	224
96	26
97	27
99	30
100	34
105	88
106	21
107	64
108	52
109	28
110	43
111	28
113	31
118	29
119	45
120	200
121	69
123	80
125	100
126	35
128	999
129	86
135	76
138	78
139	98
141	113
145	98
153	26
158	35
160	110
178	99
196	97
