Mass spectrum: 3,7,11-TRIMETHYLCYCLOTETRADECA-2(E),6(E),10(E)-TRIENYL ACETATE; EI-MS
Formula: C19H30O2
Exact mass: 290.22458
Instrument type: EI-MS
m/z	relative intensity
75	46
77	511
78	503
88	19
89	12
92	26
101	32
102	2
103	420
105	41
115	41
117	48
118	173
120	59
127	131
128	13
129	119
130	12
131	12
137	2
138	20
139	649
140	125
141	999
142	107
143	62
144	42
145	1
151	204
152	80
153	487
154	99
155	251
156	53
157	46
158	2
165	312
166	281
167	670
168	29
169	164
170	24
171	39
177	4
178	58
179	432
180	320
181	45
182	174
183	103
184	22
185	2
191	105
192	55
193	273
194	29
195	210
196	100
197	33
205	19
206	66
207	371
208	243
209	18
210	41
211	15
219	214
220	11
221	115
222	75
223	31
224	1
233	122
234	77
235	104
236	2
247	96
248	51
249	85
261	9
262	46
275	210
276	38
290	33
291	69
292	11
