Mass spectrum: 2,2'-OXYBIS(2-CHLORO)PROPANE; EI-MS
Name: BIS(2-CHLORO-2-PROPYL) ETHER
Formula: C6H12Cl2O
Exact mass: 170.02652
Instrument type: EI-MS
m/z	relative intensity
41	641
42	83
43	105
45	999
46	20
49	111
51	35
57	2
59	25
71	35
76	22
77	26
79	183
81	32
89	21
93	2
107	107
109	30
121	691
122	4
123	240
