Mass spectrum: CHLOROISOPROPYLMETHYLPHENYLSILANE; EI-MS
Formula: C10H15ClSi
Exact mass: 198.06315
Instrument type: EI-MS
m/z	relative intensity
43	13
51	20
53	14
63	131
65	50
77	15
78	17
79	24
91	108
93	18
103	16
105	27
119	18
120	14
137	69
140	14
141	19
155	999
156	132
157	359
158	43
159	14
198	52
200	20
