Mass spectrum: 6,7,8,9-TETRAHYDRO-6-METHYL-4H-PYRIDO(1,2-A)PYRIMIDIN-4-ONE; EI-MS
Formula: C9H12N2O
Exact mass: 164.09496
Instrument type: EI-MS
m/z	relative intensity
51	70
52	60
53	60
66	7
67	60
69	150
93	60
94	6
110	600
121	60
122	70
123	14
135	200
149	520
163	500
164	999
165	110
