Mass spectrum: 2-ETHYL-4-METHOXY-6-METHYLPYRIMIDINE; EI-MS
Formula: C8H12N2O
Exact mass: 152.09496
Instrument type: EI-MS
m/z	relative intensity
39	260
42	300
54	200
56	20
67	360
68	650
83	150
84	8
124	300
137	330
151	999
152	900
