Mass spectrum: DIMETHOXYDIMETHYLSILANE; EI-MS
Formula: C4H12O2Si
Exact mass: 120.06066
Instrument type: EI-MS
m/z	relative intensity
43	29
52	14
59	25
61	33
73	27
75	494
76	39
77	23
78	38
89	51
105	999
106	88
107	42
120	5
