Mass spectrum: N-BENZYL-4-ETHENYL-4-HYDROXYPIPERIDINE; EI-MS
Formula: C14H19NO
Exact mass: 217.14666
Instrument type: EI-MS
m/z	relative intensity
27	25
39	30
42	35
43	215
44	26
55	50
56	95
65	85
89	20
91	999
92	215
98	150
104	32
112	190
118	48
126	55
132	33
133	35
140	40
146	100
188	173
189	245
190	32
199	30
200	18
216	50
217	100
