Mass spectrum: 2-BENZYLOXYETHANOL; EI-MS
Formula: C9H12O2
Exact mass: 152.08373
Instrument type: EI-MS
m/z	relative intensity
31	58
45	63
65	98
77	42
78	13
79	72
90	19
91	999
92	239
93	20
105	21
106	16
107	191
108	23
152	89
153	9
