Mass spectrum: TETRADECAN-2-OL; EI-MS
Formula: C14H30O
Exact mass: 214.22967
Instrument type: EI-MS
m/z	relative intensity
31	23
43	305
45	999
55	219
57	204
69	131
71	87
83	100
84	53
97	81
98	34
111	42
112	23
125	20
126	14
168	16
196	14
199	11
