Mass spectrum: 2-METHOXYETHANOL; EI-MS
Formula: C3H8O2
Exact mass: 76.05243
Instrument type: EI-MS
m/z	relative intensity
15	291
18	33
27	76
28	28
29	330
30	11
31	397
33	23
43	131
44	24
45	999
46	86
47	164
58	57
59	47
76	67
77	11
