Mass spectrum: 1-ETHYL-5,5-DIMETHYL-3-PROPYL-3,4-DIHYDROFORMAZAN; EI-MS
Formula: C8H20N4
Exact mass: 172.1688
Instrument type: EI-MS
m/z	relative intensity
27	196
28	349
29	22
30	39
31	18
39	39
41	122
42	27
43	340
44	999
45	170
46	33
55	39
56	87
57	35
58	12
59	340
60	22
70	109
71	13
72	157
73	74
85	135
86	12
99	23
114	78
115	781
116	70
