Mass spectrum: TETRAHYDROLAVANDULOL; EI-MS
Name: 5-METHYL-2-ISOPROPYLHEXANOL
Formula: C10H22O
Exact mass: 158.16707
Instrument type: EI-MS
m/z	relative intensity
27	220
28	22
29	217
31	128
39	163
40	28
41	635
42	93
43	999
44	45
45	41
53	59
54	31
55	574
56	496
57	861
58	40
59	15
67	40
68	28
69	486
70	253
71	777
72	44
81	22
82	26
83	129
84	217
85	321
86	17
96	30
97	186
98	35
112	28
115	22
125	20
126	20
127	40
140	37
