Mass spectrum: N-ACETYLVALYLALANYLGLYCINE METHYL ESTER; EI-MS
Formula: C13H23N3O5
Exact mass: 301.16377
Instrument type: EI-MS
m/z	relative intensity
45	37
60	30
71	10
72	259
73	17
83	10
90	10
98	11
99	10
100	65
113	43
114	755
115	516
116	46
127	31
145	65
160	20
161	20
170	17
171	14
185	564
186	199
187	42
199	29
213	13
214	52
270	26
301	46
302	36
