Mass spectrum: 3-(TRIMETHYLSILYL)OXY-2-NAPHTHOIC ACID TRIMETHYLSILYL ESTER; EI-MS
Formula: C17H24O3Si2
Exact mass: 332.1264
Instrument type: EI-MS
m/z	relative intensity
73	999
74	73
75	170
77	11
115	71
141	122
149	127
185	9
243	89
259	115
260	63
299	7
317	586
318	133
319	80
