Mass spectrum: 1,4-DINITRO BENZEN; EI-MS
Formula: C6H4N2O4
Exact mass: 168.01711
Instrument type: EI-MS
m/z	relative intensity
17	41
18	43
28	28
30	999
38	74
39	83
41	76
44	27
50	637
51	46
62	38
63	169
64	247
65	118
73	43
74	227
75	796
76	511
77	40
92	299
108	32
122	304
138	79
152	28
168	776
169	68
