Mass spectrum: PARAMETHADIONE; EI-MS
Name: 5-METHYL-3,5-DIMETHYL-2,4-OXAZOLIDINEDIONE
Formula: C7H11NO3
Exact mass: 157.07389
Instrument type: EI-MS
m/z	relative intensity
51	14
53	19
54	12
55	92
56	85
57	352
58	115
69	17
70	14
71	15
72	118
73	60
83	22
87	20
100	46
128	103
129	999
130	60
142	13
157	24
