Mass spectrum: ISOPROPYL ORTHO TOLUATE (1,1,1,3,3,3-D6); EI-MS
Formula: C11H14O2
Exact mass: 178.09938
Instrument type: EI-MS
m/z	relative intensity
28	14
29	28
30	24
39	77
41	34
43	11
45	59
46	40
49	148
51	30
63	54
65	242
66	14
77	20
79	14
89	59
90	131
91	489
92	115
93	19
118	424
119	999
120	121
135	34
136	40
137	484
138	40
183	6
184	81
185	7
