Mass spectrum: PYRUVIC ACID; EI-MS
Formula: C3H4O3
Exact mass: 88.01604
Instrument type: EI-MS
m/z	relative intensity
13	12
14	41
15	172
26	14
28	23
29	61
41	25
42	97
43	999
44	60
45	163
56	12
88	14
