Mass spectrum: METHYL META HYDROXY BENZOATE; EI-MS
Formula: C8H8O3
Exact mass: 152.04734
Instrument type: EI-MS
m/z	relative intensity
38	28
39	141
41	15
50	16
51	12
53	26
62	21
63	70
64	46
65	254
66	22
77	17
92	38
93	457
94	43
120	27
121	999
122	82
151	10
152	430
153	41
