Mass spectrum: S-(2,5-DIACETOXY-3,4,6-TRIMETHYL-PHENYLMETHYL)THIOACETATE; EI-MS
Formula: C16H20O5S
Exact mass: 324.10314
Instrument type: EI-MS
m/z	relative intensity
39	9
41	6
43	466
53	3
54	2
65	5
67	14
77	1
79	13
85	2
91	42
93	1
105	6
107	27
119	2
121	6
122	13
134	3
135	47
136	5
137	14
151	23
152	13
153	1
163	28
164	999
165	464
166	6
179	5
180	2
181	9
195	2
196	16
197	142
198	353
199	5
200	16
205	2
206	5
207	14
208	14
239	22
240	742
241	11
242	39
282	427
283	67
284	2
324	47
