Mass spectrum: ALPHA-PINENE; EI-MS
Name: 2,6,6-TRIMETHYLBICYCLO(3.1.1)HEPT-2-ENE
Formula: C10H16
Exact mass: 136.1252
Instrument type: EI-MS
m/z	relative intensity
27	75
29	35
39	124
40	12
41	113
42	17
43	47
50	15
51	43
52	22
53	70
55	50
63	18
65	52
66	21
67	62
68	30
69	11
77	250
78	47
79	201
80	79
81	31
91	285
92	329
93	999
94	86
95	19
103	17
105	87
106	25
107	58
108	14
119	18
121	137
122	12
136	89
137	13
