Mass spectrum: 3-(4-DIMETHYLAMINOPHENYL)BENZO(F)QUINAZOLINE; EI-MS
Formula: C20H17N3
Exact mass: 299.14225
Instrument type: EI-MS
m/z	relative intensity
69	21
71	14
75	18
76	3
77	46
78	13
79	11
81	2
91	17
95	23
97	15
100	2
101	14
102	17
103	15
104	2
105	14
114	12
118	11
120	4
121	18
125	22
126	113
127	5
127.5	37
128	56
129	21
130	2
131	10
134	16
135	27
141	2
141.5	22
142	17
145	74
146	2
148.5	20
149	157
1495	161
150	3
152	47
153	22
179	24
194	1
201	14
227	28
228	29
229	2
242	13
247	26
253	17
254	2
255	87
256	59
257	48
258	1
268	18
269	26
270	17
271	2
281	12
282	86
283	186
284	9
285	37
286	15
287	12
298	77
299	999
300	331
301	38
