Mass spectrum: PENTYL 2-METHYLBUTYRATE; EI-MS
Formula: C10H20O2
Exact mass: 172.14633
Instrument type: EI-MS
m/z	relative intensity
26	15
27	218
29	475
30	10
31	15
39	142
41	527
42	252
43	645
44	20
45	18
53	22
54	10
55	252
56	105
57	999
58	48
69	64
70	534
71	127
73	20
74	233
75	23
85	634
86	31
87	98
102	52
103	984
104	59
115	43
144	39
