Mass spectrum: PYRIDINE; EI-MS
Formula: C5H5N
Exact mass: 79.0422
Instrument type: EI-MS
m/z	relative intensity
26	84
27	28
28	35
37	20
38	30
39	88
43	18
49	32
50	187
51	303
52	809
53	87
57	18
75	19
76	16
78	116
79	999
80	64
