Mass spectrum: P-TERT-BUTYLPHENYL METHYL ETHER; EI-MS
Formula: C11H16O
Exact mass: 164.12012
Instrument type: EI-MS
m/z	relative intensity
15	32
27	25
29	18
39	65
41	107
50	14
51	28
52	12
53	14
55	12
63	26
64	14
65	34
77	85
78	31
79	26
89	15
90	11
91	105
92	13
94	24
103	18
105	18
109	117
115	16
117	12
119	12
121	181
122	15
133	23
134	16
149	999
150	105
164	209
165	20
