Mass spectrum: N-ACETYLPHENYLALANINE METHYL ESTER; EI-MS
Formula: C12H15NO3
Exact mass: 221.10519
Instrument type: EI-MS
m/z	relative intensity
43	31
88	256
91	105
92	20
102	16
117	18
119	15
120	111
121	10
130	23
131	97
161	80
162	999
163	116
221	4
