Mass spectrum: ISOAMYL PARA TOLUATE; EI-MS
Name: PARA TOLUIC ACID ISOAMYL ESTER
Formula: C13H18O2
Exact mass: 206.13068
Instrument type: EI-MS
m/z	relative intensity
27	26
29	32
39	52
41	79
42	80
43	72
55	189
63	16
65	141
69	12
70	702
71	35
89	32
90	20
91	426
92	55
93	55
119	999
120	89
136	316
137	392
138	34
