Mass spectrum: PINACOLONE; EI-MS
Name: 3,3-DIMETHYL-2-BUTANONE
Formula: C6H12O
Exact mass: 100.08882
Instrument type: EI-MS
m/z	relative intensity
29	236
41	375
42	18
43	168
55	22
56	59
57	999
58	43
85	38
100	216
101	15
