Mass spectrum: ALPHA,ALPHA,ALPHA-TRIFLUOROTOLUENE; EI-MS
Formula: C7H5F3
Exact mass: 146.03433
Instrument type: EI-MS
m/z	relative intensity
51	10
63	1
77	34
96	202
97	13
126	13
127	183
128	13
145	260
146	999
147	75
