Mass spectrum: CIS-L-CARVYL ACETATE; EI-MS
Formula: C12H18O2
Exact mass: 194.13068
Instrument type: EI-MS
m/z	relative intensity
15	36
27	125
29	77
38	10
39	300
40	38
41	360
42	33
43	978
44	26
45	11
50	18
51	61
52	39
53	188
54	181
55	208
56	36
58	30
61	18
63	17
65	80
66	36
67	122
68	64
69	74
71	11
72	11
77	186
78	49
79	261
80	119
81	103
82	384
83	96
84	999
85	53
89	10
91	457
92	300
93	367
94	79
95	64
96	45
97	37
103	28
104	16
105	233
106	127
107	184
108	213
109	659
110	65
111	14
115	24
117	54
118	13
119	830
120	75
121	19
122	19
123	45
124	24
126	37
133	41
134	506
135	67
137	52
150	43
151	101
152	572
153	60
