Mass spectrum: ANTHRACENE (1,2,3,4,5,6,7,8,9,10-D10); EI-MS
Formula: C14H10
Exact mass: 178.07825
Instrument type: EI-MS
m/z	relative intensity
40	11
42	24
52	27
54	23
64	22
66	71
76	28
78	53
80	154
82	11
88	14
90	21
92	69
94	146
100	15
132	16
146	12
156	43
157	14
158	74
159	22
160	88
180	10
182	15
183	22
184	138
185	28
186	65
187	165
188	999
189	150
190	9
