Mass spectrum: HEXANAL ETHYL TRANS-2-HEXENYL ACETAL; EI-MS
Formula: C14H28O2
Exact mass: 228.20893
Instrument type: EI-MS
m/z	relative intensity
27	129
29	177
31	32
39	97
41	347
42	46
43	192
44	36
45	20
47	72
53	28
54	88
55	560
56	40
57	115
58	11
59	23
67	161
69	16
71	35
72	14
73	12
75	124
81	18
82	205
83	999
84	74
85	68
99	65
101	11
129	234
130	17
139	28
157	16
