Mass spectrum: N,N-DIMETHYL-META-TOLUIDINE; EI-MS
Formula: C9H13N
Exact mass: 135.1048
Instrument type: EI-MS
m/z	relative intensity
15	13
28	19
39	23
42	38
44	14
51	13
63	16
65	53
67	13
77	36
78	14
79	12
89	15
90	10
91	153
92	30
93	16
104	11
105	19
106	12
118	90
119	90
120	58
121	16
132	14
133	14
134	999
135	839
136	74
