Mass spectrum: 3-(METHYLTHIO)HEXANOL; EI-MS
Formula: C7H16OS
Exact mass: 148.09219
Instrument type: EI-MS
m/z	relative intensity
14	12
15	39
19	10
26	17
27	395
28	40
29	289
31	432
35	25
38	16
39	273
40	38
41	846
42	170
43	224
44	146
45	237
46	51
47	254
48	102
49	156
50	16
51	25
53	90
54	56
55	999
56	173
57	662
58	69
59	86
60	23
61	731
62	28
63	34
65	18
67	334
68	25
69	97
70	53
71	162
72	91
73	38
74	16
75	639
76	25
77	38
79	13
81	52
82	518
83	221
84	18
85	22
87	31
88	11
89	35
100	81
101	31
102	14
103	204
104	13
105	249
106	15
115	28
117	13
133	36
148	617
149	45
150	27
