Mass spectrum: 2,3-DICHLORO-1,1,1,4,4,4-HEXAFLUORO-2-BUTENE; EI-MS
Formula: C4Cl2F6
Exact mass: 231.92812
Instrument type: EI-MS
m/z	relative intensity
31	104
35	14
37	4
47	2
49	7
50	20
55	51
59	0
62	12
66	14
68	4
69	999
70	14
74	96
78	14
80	0
85	102
87	37
90	20
93	31
94	34
96	12
97	8
98	1
109	192
110	11
111	63
112	5
124	24
128	15
130	8
132	1
143	28
147	340
148	15
149	11
150	5
163	967
164	39
165	6
166	27
167	96
168	6
182	4
184	24
186	6
197	255
199	9
213	164
215	107
217	17
232	71
233	34
234	458
235	18
236	7
237	3
