Mass spectrum: PROPIONALDEHYDE DIETHYLACETAL; EI-MS
Formula: C7H16O2
Exact mass: 132.11503
Instrument type: EI-MS
m/z	relative intensity
15	25
26	20
27	169
28	62
29	341
30	25
31	292
39	33
40	11
41	120
42	16
43	36
44	11
45	78
47	615
57	105
58	71
59	999
60	36
73	11
75	294
76	11
77	16
86	22
87	682
88	42
98	13
103	490
104	29
