Mass spectrum: 3-NITROTOLUENE; EI-MS
Formula: C7H7NO2
Exact mass: 137.04768
Instrument type: EI-MS
m/z	relative intensity
30	34
38	10
39	76
41	20
46	13
50	19
51	34
52	11
53	10
62	19
63	64
64	17
65	308
66	16
77	62
78	14
79	86
89	61
90	36
91	999
92	81
107	87
121	12
137	865
138	77
139	6
