Mass spectrum: META-NITROBENZALDEHYDE; EI-MS
Formula: C7H5NO3
Exact mass: 151.02694
Instrument type: EI-MS
m/z	relative intensity
27	61
28	56
29	72
30	61
31	38
32	28
37	32
38	44
39	78
49	17
50	328
51	869
52	40
62	24
63	43
64	31
65	110
73	20
74	128
75	140
76	265
77	999
78	62
92	44
93	17
104	195
105	532
106	40
120	35
121	27
135	16
150	848
151	875
152	82
