Mass spectrum: LIMONENE DIOXIDE; EI-MS
Name: 1,2-EPOXY-4-(1,2-EPOXY-1-METHYLETHYL)-1-METHYLCYCLOHEXANE
Formula: C10H16O2
Exact mass: 168.11503
Instrument type: EI-MS
m/z	relative intensity
15	29
27	149
29	106
31	24
39	151
40	15
41	253
42	30
43	999
44	50
45	28
51	23
52	13
53	93
54	39
55	176
56	25
57	49
58	96
59	28
65	28
66	16
67	171
68	44
69	95
70	20
71	108
72	16
77	46
79	103
80	30
81	94
82	114
83	85
84	30
85	38
91	54
92	64
93	101
94	25
95	133
96	23
97	100
98	30
105	28
106	19
107	145
108	43
109	69
110	43
111	54
121	37
123	51
125	37
135	29
137	12
139	11
153	25
