Mass spectrum: 1-PHENYL-5-METHYLBICYCLO(3.2.2)NON-6-EN-2ONE; EI-MS
Formula: C16H18O
Exact mass: 226.13577
Instrument type: EI-MS
m/z	relative intensity
18	183
91	145
128	62
129	5
141	50
142	60
154	80
155	66
156	94
167	76
168	215
169	42
170	999
171	148
182	79
198	8
211	80
226	458
227	81
