Mass spectrum: PHENYLACETONE; EI-MS
Formula: C9H10O
Exact mass: 134.07316
Instrument type: EI-MS
m/z	relative intensity
15	15
32	64
38	10
39	70
41	16
43	999
46	16
50	17
51	38
52	11
62	14
63	43
64	12
65	138
66	10
77	18
89	35
90	17
91	573
92	248
93	18
134	241
135	25
