Mass spectrum: TETRAKIS(PENTAFLUOROPHENYL)-DIPHOSPHINE; EI-MS
Formula: C24F20P2
Exact mass: 729.91559
Instrument type: EI-MS
m/z	relative intensity
69	610
79	44
91	12
93	5
98	24
99	55
110	390
111	1
117	64
129	295
130	25
148	3
167	9
168	160
179	52
183	3
198	880
199	80
217	180
227	7
246	23
258	42
277	58
296	2
297	28
327	12
347	27
348	0
365	999
366	670
367	110
384	6
400	28
532	39
711	9
730	2
731	68
