Mass spectrum: 6,6'-DIMETHYL-3,3'-TETRAMETHYLENEDIPYRIDINE; EI-MS
Formula: C16H20N2
Exact mass: 240.16265
Instrument type: EI-MS
m/z	relative intensity
39	45
40	10
41	25
43	12
51	25
65	48
66	12
77	23
78	64
79	128
92	14
106	70
107	705
108	53
120	237
121	2
134	201
135	18
238	69
239	1
240	999
241	183
