Mass spectrum: ALPHA-NAPHTHALENEACETIC ACID TRIMETHYLSILYL ESTER; EI-MS
Name: TRIMETHYLSILYL ALPHA-NAPHTHALENEACETATE
Formula: C15H18O2Si
Exact mass: 258.10761
Instrument type: EI-MS
m/z	relative intensity
45	62
73	999
74	97
75	21
77	51
115	86
139	40
141	10
214	97
243	54
258	81
259	18
