Mass spectrum: TETRADECANE; EI-MS
Formula: C14H30
Exact mass: 198.23475
Instrument type: EI-MS
m/z	relative intensity
40	35
41	443
42	123
43	98
44	41
53	16
54	15
55	15
56	142
57	999
58	42
67	1
68	9
69	56
70	83
71	46
72	25
82	9
83	26
84	4
85	254
86	17
97	15
98	3
99	47
111	5
112	19
113	2
126	11
127	13
140	6
141	1
155	5
168	1
169	2
198	1
199	1
