Mass spectrum: 2ALPHA,6,6,9-TETRAMETHYL-5ALPHA,8BETA-TRICYCLO(6.3.0.0(1,5))UNDEC-9-EN-2BETA-OL; EI-MS
Formula: C15H24O
Exact mass: 220.18272
Instrument type: EI-MS
m/z	relative intensity
106	29
120	17
131	111
132	3
145	34
146	111
147	54
159	26
160	22
162	59
173	122
174	33
175	36
187	999
188	142
202	44
203	79
204	15
205	59
220	37
