Mass spectrum: ISOPENTYL BENZOATE; EI-MS
Formula: C12H16O2
Exact mass: 192.11503
Instrument type: EI-MS
m/z	relative intensity
42	52
43	25
55	131
69	23
70	999
71	57
77	56
79	18
105	414
106	36
122	53
123	244
124	20
149	9
192	3
