Mass spectrum: (Z)-3-HEXENOL; EI-MS
Formula: C6H12O
Exact mass: 100.08882
Instrument type: EI-MS
m/z	relative intensity
39	86
41	999
42	266
43	30
44	86
45	33
53	59
54	136
55	391
56	80
57	151
67	805
68	59
69	254
70	89
72	30
82	420
100	30
