Mass spectrum: 1-PHENYLETHANOL; EI-MS
Formula: C8H10O
Exact mass: 122.07316
Instrument type: EI-MS
m/z	relative intensity
15	35
17	16
18	94
26	15
27	85
29	44
31	30
38	28
39	109
41	11
42	13
43	377
44	15
45	67
49	11
50	145
51	352
52	73
53	38
54	53
62	22
63	48
65	26
74	45
75	31
76	31
77	711
78	264
79	972
80	58
89	13
91	29
102	15
103	55
104	86
105	289
106	24
107	999
108	81
120	53
121	54
122	313
123	21
