Mass spectrum: CIS-ROSE OXIDE; EI-MS
Name: 4-METHYL-CIS-2-(2-METHYL-1-PROPENYL)PERHYDROPYRAN
Formula: C10H18O
Exact mass: 154.13577
Instrument type: EI-MS
m/z	relative intensity
15	10
27	101
29	101
31	14
32	18
39	174
40	22
41	318
42	129
43	65
51	19
52	12
53	72
54	20
55	269
56	76
57	19
65	18
67	93
68	14
69	545
70	32
77	16
79	22
81	26
82	35
83	260
84	132
85	145
93	11
97	32
109	12
112	18
139	999
140	87
153	14
154	139
155	13
