Mass spectrum: HEXYL ACETATE; EI-MS
Formula: C8H16O2
Exact mass: 144.11503
Instrument type: EI-MS
m/z	relative intensity
29	16
41	86
42	309
43	920
44	22
54	26
55	342
56	999
57	59
58	68
59	15
61	546
62	14
68	11
69	305
70	24
71	18
72	11
73	162
82	17
83	71
84	682
85	50
86	14
87	21
97	14
99	11
101	27
