Mass spectrum: PROPYLENE GLYCOL DIACETATE; EI-MS
Name: 1,2-DIACETHOXYPROPANE
Formula: C7H12O4
Exact mass: 160.07356
Instrument type: EI-MS
m/z	relative intensity
15	54
27	13
28	27
29	12
31	11
39	12
41	14
42	19
43	999
44	25
45	23
58	33
73	23
74	15
86	38
87	105
100	51
103	12
116	50
117	20
