Mass spectrum: 1-METHOXY-2-NAPHTHOIC ACID METHYL ESTER; EI-MS
Formula: C13H12O3
Exact mass: 216.07864
Instrument type: EI-MS
m/z	relative intensity
51	78
57	117
63	132
113	16
114	539
115	265
126	70
127	43
128	195
129	218
130	62
142	15
143	171
145	210
155	234
156	13
157	179
170	343
171	132
183	29
184	85
185	999
186	117
187	20
216	835
217	93
