Mass spectrum: 2,2,7,7-TETRAMETHYL-4-METHYLENECYCLOHEPTANONE; EI-MS
Formula: C12H20O
Exact mass: 180.15142
Instrument type: EI-MS
m/z	relative intensity
41	362
43	136
53	94
55	213
56	136
57	47
67	221
68	123
69	153
77	72
79	38
81	999
82	209
83	98
93	43
95	391
96	711
97	60
108	89
109	749
110	94
111	81
124	213
125	281
137	157
138	34
165	111
180	438
181	34
