Mass spectrum: 2-IODO-3-TRIMETHYLSILOXYBUTANE; EI-MS
Formula: C7H17IOSi
Exact mass: 272.00933
Instrument type: EI-MS
m/z	relative intensity
41	24
43	61
45	67
47	44
51	30
55	62
57	19
59	28
61	23
65	27
72	26
73	999
74	90
75	261
76	19
117	604
118	66
119	25
127	44
129	186
130	52
145	480
146	65
147	23
171	16
185	302
186	22
187	17
257	97
258	13
272	2
