Mass spectrum: NONANAL DIMETHYL ACETAL; EI-MS
Formula: C11H24O2
Exact mass: 188.17763
Instrument type: EI-MS
m/z	relative intensity
15	12
27	45
29	62
31	37
39	31
41	134
42	14
43	49
45	70
47	57
55	70
57	27
58	54
67	14
68	11
69	88
71	202
75	999
76	32
81	13
82	12
83	46
157	63
