Mass spectrum: PARA-ISOPROPYLBENZOIC ACID TRIMETHYLSILYLESTER; EI-MS
Formula: C13H20O2Si
Exact mass: 236.12326
Instrument type: EI-MS
m/z	relative intensity
45	158
73	231
75	79
77	16
91	134
103	152
147	585
177	55
178	73
193	60
221	999
222	18
236	60
