Mass spectrum: ORTHO IODOTOLUENE; EI-MS
Formula: C7H7I
Exact mass: 217.95924
Instrument type: EI-MS
m/z	relative intensity
27	13
37	17
38	38
39	168
40	13
41	24
50	60
51	66
52	17
61	21
62	63
63	154
64	42
65	380
66	17
74	13
89	144
90	127
91	999
92	72
127	41
128	13
217	8
218	856
219	63
