Mass spectrum: (ALL-CIS)-5,8,11,14-EICOSATETRAENOIC ACIDTRIMETHYLSILYL ESTER; EI-MS
Name: TRIMETHYLSILYL CIS-5,CIS-8,CIS-11,CIS-14-EICOSATETRAENOATE
Formula: C23H40O2Si
Exact mass: 376.27976
Instrument type: EI-MS
m/z	relative intensity
43	305
45	170
53	89
55	34
57	110
65	71
66	121
67	60
69	161
73	999
74	79
75	72
77	239
78	192
79	691
80	53
81	264
83	63
91	461
92	15
93	414
94	158
95	149
105	23
106	292
107	161
117	336
118	6
119	161
120	127
121	95
129	11
131	121
132	67
133	157
135	6
147	86
150	107
175	58
