Mass spectrum: 3-ACETYL-9-BUTYLCARBAZOLE; EI-MS
Formula: C18H19NO
Exact mass: 265.14666
Instrument type: EI-MS
m/z	relative intensity
41	18
43	113
55	10
125	1
139	28
141	10
151	21
152	3
153	22
164	22
165	39
166	4
178	88
179	423
180	148
192	1
194	20
195	19
222	999
223	30
250	465
251	55
265	831
266	158
