Mass spectrum: SEC-BUTYL ACETATE; EI-MS
Formula: C6H12O2
Exact mass: 116.08373
Instrument type: EI-MS
m/z	relative intensity
18	65
25	35
26	20
29	2
40	90
41	15
43	999
44	4
45	20
53	20
55	360
56	11
58	10
59	15
60	20
61	9
72	15
73	90
74	15
88	29
89	20
101	60
102	15
115	15
