Mass spectrum: 6-HYDROXY-2,2,4,4-TETRAMETHYL-1,2,3,4-TETRAHYDRO-GAMMA-CARBOLINE; EI-MS
Formula: C15H20N2O
Exact mass: 244.15756
Instrument type: EI-MS
m/z	relative intensity
42	18
51	10
77	21
91	2
92	10
115	20
128	15
159	2
172	80
186	20
187	260
188	2
212	10
213	18
228	19
229	999
230	102
244	44
