Mass spectrum: 4'-METHOXYCHALCONE; EI-MS
Name: 1-(4-METHOXYPHENYL)-3-PHENYL-2-PROPEN-1-ONE
Formula: C16H14O2
Exact mass: 238.09938
Instrument type: EI-MS
m/z	relative intensity
14	25
15	30
16	10
17	4
18	160
27	90
28	615
29	4
32	280
33	25
37	20
38	4
39	75
40	10
42	15
45	5
46	20
47	10
48	15
50	31
51	420
52	60
53	30
54	1
56	15
61	20
62	110
63	14
64	20
65	10
74	50
75	4
76	70
77	820
81	10
82	1
83	10
84	10
85	10
86	1
87	20
92	240
93	25
103	18
104	20
105	370
106	330
107	17
108	40
109	10
115	20
116	1
117	10
118	10
127	20
131	11
132	5
133	15
135	999
136	8
137	10
140	10
142	15
149	2
150	175
151	20
152	30
153	1
160	20
161	10
177	10
178	1
179	20
180	20
194	20
195	8
196	10
205	10
206	10
207	4
208	10
209	30
210	85
211	1
222	10
223	110
224	10
236	1
237	465
238	730
239	70
240	15
