Mass spectrum: ALPHA-AMYLCINNAMALDEHYDE; EI-MS
Formula: C14H18O
Exact mass: 202.13577
Instrument type: EI-MS
m/z	relative intensity
14	16
27	244
29	316
39	253
40	10
41	321
42	28
43	70
50	38
51	142
52	41
53	72
54	27
55	92
57	40
62	21
63	89
64	22
65	144
67	61
68	20
69	30
75	28
76	38
77	176
78	139
79	38
81	35
82	22
83	21
85	19
87	11
89	82
90	14
91	997
92	97
93	21
95	67
96	12
102	74
103	81
104	118
105	80
111	69
114	20
115	853
116	306
117	999
118	159
119	12
120	15
127	86
128	165
129	913
130	128
131	391
132	62
133	19
141	123
142	36
143	32
144	27
145	532
146	102
147	13
155	56
156	14
157	14
158	29
159	90
160	20
171	31
173	146
174	30
201	231
202	514
203	67
