Mass spectrum: 2-(DIMETHOXYMETHYL)CYCLOPENTANONE; EI-MS
Formula: C8H14O3
Exact mass: 158.09429
Instrument type: EI-MS
m/z	relative intensity
41	157
42	31
43	17
45	33
47	95
53	21
55	68
59	27
67	209
68	18
69	43
70	49
71	102
75	999
76	31
83	18
84	104
85	31
87	20
95	84
97	55
98	18
111	21
126	94
127	115
158	20
