Mass spectrum: 4-TERT-BUTYLCYCLOHEXYL ACETATE(EQUATORIAL-EQUATORIAL); EI-MS
Formula: C12H22O2
Exact mass: 198.16198
Instrument type: EI-MS
m/z	relative intensity
28	50
41	43
43	99
54	4
55	35
56	257
57	999
58	5
61	226
67	11
68	310
69	2
70	23
71	11
79	14
80	41
81	245
82	638
83	195
84	2
94	11
95	57
96	38
99	2
110	11
111	23
118	19
124	17
125	21
138	19
139	131
140	2
142	24
143	26
144	29
