Mass spectrum: METHYL 2-METHYLHEXADECANOATE; EI-MS
Name: METHYL ALPHA-METHYLPALMITATE
Formula: C18H36O2
Exact mass: 284.27153
Instrument type: EI-MS
m/z	relative intensity
54	11
55	186
56	53
57	196
59	78
67	15
69	105
70	24
71	49
73	16
74	10
83	47
85	21
87	37
88	999
89	43
97	23
98	19
101	328
102	24
115	20
129	10
143	44
157	41
171	16
185	14
199	15
213	13
227	28
241	16
284	30
285	7
