Mass spectrum: ALLYL ANTHRANILATE; EI-MS
Formula: C10H11NO2
Exact mass: 177.07898
Instrument type: EI-MS
m/z	relative intensity
27	12
29	10
39	10
41	179
54	10
56	141
65	129
66	23
77	10
78	22
80	26
81	26
91	45
92	464
93	279
94	22
103	10
104	51
105	10
118	11
119	999
120	883
121	180
122	12
130	173
131	59
132	200
133	40
158	62
159	54
160	11
177	907
