Mass spectrum: 1,1,3,3,5-PENTAMETHYL-1,2,3,4,4A,9B-HEXAHYDRO-GAMMA-CARBOLINE; EI-MS
Formula: C16H24N2
Exact mass: 244.19395
Instrument type: EI-MS
m/z	relative intensity
42	106
57	65
58	392
70	5
71	110
84	162
91	25
98	18
99	999
100	691
101	60
115	5
130	172
131	515
132	106
144	10
145	72
146	98
170	20
171	2
172	10
186	40
187	25
244	148
