Mass spectrum: 2,2,5,7-TETRAMETHYLCHROMAN-6-OL; EI-MS
Name: 3,4-DIHYDRO-2,2,5,7-TETRAMETHYL-6-HYDROXY-2H-BENZOPYRAN
Formula: C13H18O2
Exact mass: 206.13068
Instrument type: EI-MS
m/z	relative intensity
39	112
41	130
43	118
53	153
55	102
57	94
65	97
67	143
68	85
69	110
77	180
79	60
81	75
83	108
91	142
93	95
95	82
97	100
105	138
107	138
108	102
109	105
119	117
121	177
122	180
123	118
133	142
135	108
136	52
138	152
147	116
149	100
150	417
151	999
152	143
161	292
162	167
163	115
174	100
175	140
176	92
189	285
191	100
204	170
206	497
207	108
