Mass spectrum: EICOSANOIC ACID TRIMETHYLSILYL ESTER; EI-MS
Formula: C23H48O2Si
Exact mass: 384.34236
Instrument type: EI-MS
m/z	relative intensity
43	286
45	105
55	296
56	10
57	100
67	105
69	207
71	11
73	888
74	115
75	707
83	13
95	105
117	999
118	105
129	46
131	194
132	497
133	131
145	42
201	125
209	174
220	171
369	61
370	194
