Mass spectrum: 4-(3-(4-TRIMETHYLSILYLOXYPHENOXY)PROPYL)MORPHOLINE; EI-MS
Formula: C16H27NO3Si
Exact mass: 309.17602
Instrument type: EI-MS
m/z	relative intensity
41	18
44	11
56	8
58	22
70	97
74	19
86	18
87	25
98	6
100	999
101	66
113	18
114	8
120	8
126	1
128	842
129	72
130	9
144	54
149	2
158	5
167	9
179	2
182	3
193	1
196	8
197	1
199	3
220	3
221	5
223	3
227	1
255	2
267	5
294	6
295	1
298	6
299	2
307	3
308	4
309	55
310	14
