Mass spectrum: 2-(N-BENZYL-N-PHENYLAMINOMETHYL)-4,5-DIHYDRO-1H-IMIDAZOLE; EI-MS
Name: ANTAZOLINE
Formula: C17H19N3
Exact mass: 265.1579
Instrument type: EI-MS
m/z	relative intensity
54	19
55	59
56	14
57	0
64	9
65	29
66	4
76	0
77	59
78	11
79	9
82	2
83	39
84	999
85	59
86	2
87	9
88	4
90	19
91	15
92	29
93	9
103	9
104	2
105	9
106	14
180	19
181	1
182	59
183	14
265	14
