Mass spectrum: 1-ALPHA-2-ALPHA-EPOXY-3-OXO-5,6-DIHYDROALANTOLACTONE; EI-MS
Name: HIMEYOSHIN
Formula: C15H18O4
Exact mass: 262.12051
Instrument type: EI-MS
m/z	relative intensity
43	386
56	182
57	91
69	324
70	91
71	159
82	159
85	97
91	171
93	108
95	205
96	171
97	125
98	97
105	165
106	136
107	142
109	148
110	97
112	97
117	85
119	148
120	159
121	148
122	159
123	216
124	91
131	261
132	114
133	239
134	114
135	205
136	205
137	165
143	144
144	102
145	307
147	171
148	91
149	693
150	148
151	165
155	102
159	489
160	165
161	330
162	114
163	165
164	97
165	136
169	114
170	165
171	182
172	97
173	182
174	97
175	80
176	261
177	477
178	261
183	102
187	239
188	165
189	142
190	165
191	250
192	476
198	136
199	159
201	233
203	91
204	97
205	511
206	443
211	97
215	273
216	421
217	159
219	999
220	159
223	182
233	948
244	239
246	132
247	100
262	787
263	97
