Mass spectrum: (2S,3S)-1,4-DIMETHOXY-2,3-BUTANEDIOL; EI-MS
Formula: C6H14O4
Exact mass: 150.08921
Instrument type: EI-MS
m/z	relative intensity
44	242
45	101
58	54
59	3
60	94
72	30
73	81
74	16
75	999
76	306
84	27
86	4
87	742
88	178
89	242
90	4
100	40
105	823
106	54
107	5
118	134
119	20
