Mass spectrum: 2-METHOXYPHENAZINE; EI-MS
Formula: C13H10N2O
Exact mass: 210.07931
Instrument type: EI-MS
m/z	relative intensity
62	60
63	150
64	40
74	50
75	80
76	100
77	60
102	55
113	50
114	60
140	90
167	700
168	100
180	80
181	60
209	70
210	999
211	140
212	20
