Mass spectrum: O-PENTYLHYDROXYLAMINE; EI-MS
Formula: C5H13NO
Exact mass: 103.09971
Instrument type: EI-MS
m/z	relative intensity
38	164
39	117
41	391
42	30
43	999
44	195
45	39
46	4
53	23
55	273
56	59
57	6
58	70
69	23
70	195
71	3
72	16
86	8
103	12
