Mass spectrum: ETHYLHYDRAZONE ACETALDEHYDE; EI-MS
Name: ACETALDEHYDE ETHYLHYDRAZONE
Formula: C4H10N2
Exact mass: 86.0844
Instrument type: EI-MS
m/z	relative intensity
27	230
28	229
29	167
30	97
31	36
40	46
41	84
42	48
43	86
44	167
57	84
58	3
71	999
72	40
85	45
86	56
87	32
