Mass spectrum: BUTYL ETHER; EI-MS
Formula: C8H18O
Exact mass: 130.13577
Instrument type: EI-MS
m/z	relative intensity
28	18
29	64
41	128
43	2
45	20
55	27
56	164
57	999
58	46
73	18
87	180
88	1
101	30
130	29
