Mass spectrum: ISOPROPYL ALCOHOL(1,1,1,3,3,3-D6); EI-MS
Formula: C3H8O
Exact mass: 60.05751
Instrument type: EI-MS
m/z	relative intensity
18	25
20	32
21	29
28	14
29	64
30	49
33	35
42	19
44	17
45	51
46	88
47	17
48	999
49	83
65	49
