Mass spectrum: 1,3-DINITRO BENZEN; EI-MS
Formula: C6H4N2O4
Exact mass: 168.01711
Instrument type: EI-MS
m/z	relative intensity
29	29
30	976
37	56
38	100
39	102
46	24
50	701
51	105
52	38
61	25
62	53
63	184
64	218
65	34
73	40
74	239
75	821
76	730
77	71
92	453
93	33
122	368
123	28
138	27
152	43
168	999
169	80
