Mass spectrum: 1-ETHYL-3-METHYL-5,5-PENTAMETHYLENE-3,4-DIHYDROFORMAZAN; EI-MS
Formula: C9H20N4
Exact mass: 184.1688
Instrument type: EI-MS
m/z	relative intensity
29	365
30	285
39	87
40	3
41	271
42	865
43	100
44	22
46	34
53	24
54	49
55	51
56	300
57	71
58	60
67	3
68	20
69	128
70	100
71	6
82	93
83	79
84	835
85	16
98	24
99	64
111	51
125	27
126	179
127	999
128	79
