Mass spectrum: 1,1,1,3,3,3-HEXAMETHYL-2-PHENYLDISILAZANE; EI-MS
Formula: C12H23NSi2
Exact mass: 237.1369
Instrument type: EI-MS
m/z	relative intensity
43	42
45	126
59	72
73	372
74	30
75	48
77	11
84	15
93	17
95	13
130	14
134	13
135	10
149	18
150	43
192	11
206	60
222	999
223	193
224	79
225	11
237	143
238	39
239	11
