Mass spectrum: 1-METHOXY-2-METHYL-1-PHENYLPENTAN-3-ONE; EI-MS
Formula: C13H18O2
Exact mass: 206.13068
Instrument type: EI-MS
m/z	relative intensity
57	44
77	56
78	11
91	47
105	42
115	21
117	56
118	29
121	999
122	95
145	15
174	54
177	13
191	13
206	2
