Mass spectrum: TRIETHYLENE GLYCOL; EI-MS
Formula: C6H14O4
Exact mass: 150.08921
Instrument type: EI-MS
m/z	relative intensity
43	19
44	73
45	999
46	21
58	196
59	68
60	12
61	10
75	150
87	70
88	70
89	293
90	85
101	26
102	29
119	49
150	3
