Mass spectrum: DIBUTYL OXALATE; EI-MS
Formula: C10H18O4
Exact mass: 202.12051
Instrument type: EI-MS
m/z	relative intensity
27	82
28	42
29	416
31	13
39	44
41	378
42	22
43	27
55	56
56	218
57	999
58	44
101	11
102	22
147	13
