Mass spectrum: ETHYL FORMATE; EI-MS
Name: FORMIC ACID ETHYL ESTER
Formula: C3H6O2
Exact mass: 74.03678
Instrument type: EI-MS
m/z	relative intensity
25	11
26	131
27	451
28	776
29	627
30	53
31	999
42	23
43	103
44	24
45	335
46	11
47	98
56	28
59	10
73	14
74	99
