Mass spectrum: 2-BUTYLTHIOPHENE; EI-MS
Formula: C8H12S
Exact mass: 140.06597
Instrument type: EI-MS
m/z	relative intensity
27	30
29	30
39	40
41	60
43	20
45	119
46	10
53	100
55	10
58	10
65	10
67	31
69	40
71	21
77	30
78	10
79	10
84	60
85	31
91	10
96	23
97	999
98	440
99	181
140	369
141	49
142	10
