Mass spectrum: 2,3-DIBROMO-1-PROPANOL; EI-MS
Name: GLYCEROL ALPHA,BATA-DIBROMOHYDRIN
Formula: C3H6Br2O
Exact mass: 215.87854
Instrument type: EI-MS
m/z	relative intensity
39	30
43	20
57	97
58	25
81	14
93	21
95	31
105	25
106	775
107	182
108	998
109	190
110	220
111	24
119	51
121	48
135	14
136	872
137	999
138	842
139	963
140	41
186	18
187	18
188	29
189	11
190	14
198	10
200	13
201	10
216	11
218	19
220	10
