Mass spectrum: 1,3-DIACETIN; EI-MS
Name: GLYCEROL 1,3-DIACETATE
Formula: C7H12O5
Exact mass: 176.06847
Instrument type: EI-MS
m/z	relative intensity
43	999
44	22
61	16
73	35
74	35
86	58
103	318
104	15
115	102
116	141
117	21
145	330
146	23
158	9
