Mass spectrum: 1-METHYLPYRAZOLE; EI-MS
Formula: C4H6N2
Exact mass: 82.0531
Instrument type: EI-MS
m/z	relative intensity
26	62
27	76
28	180
29	4
30	19
37	15
38	35
39	5
40	64
41	53
42	156
43	3
51	30
52	73
53	127
54	26
55	59
56	11
80	8
81	45
82	999
83	53
