Mass spectrum: 1-OCTYLAMINE; EI-MS
Formula: C8H19N
Exact mass: 129.15175
Instrument type: EI-MS
m/z	relative intensity
18	56
27	48
28	28
29	5
30	999
31	20
39	29
41	7
42	26
43	34
44	61
45	5
55	28
56	23
69	15
86	2
128	13
