Mass spectrum: CYCLOHEXANE; EI-MS
Formula: C6H12
Exact mass: 84.0939
Instrument type: EI-MS
m/z	relative intensity
15	1
26	2
27	15
28	7
29	8
38	2
39	21
40	5
41	53
42	25
43	11
50	2
51	3
52	1
53	5
54	6
55	34
56	999
57	5
67	3
68	2
69	30
70	2
83	6
84	99
85	7
