Mass spectrum: N-(1-METHYLPROPYL)ACETAMIDE; EI-MS
Name: ACETYLAMINO-1-METHYLPROPANE
Formula: C6H13NO
Exact mass: 115.09971
Instrument type: EI-MS
m/z	relative intensity
43	26
44	999
45	24
56	19
58	234
60	99
72	18
86	763
87	40
100	22
115	120
116	47
