Mass spectrum: TRANS-11-OCTADECENOIC ACID TRIMETHYLSILYLESTER; EI-MS
Name: TRIMETHYLSILYL TRANS-11-OCTADECENOATE
Formula: C21H42O2Si
Exact mass: 354.29541
Instrument type: EI-MS
m/z	relative intensity
55	480
67	153
69	307
73	999
75	692
77	19
81	288
95	13
96	134
117	884
129	615
131	15
132	230
145	288
264	134
339	62
340	153
341	211
