Mass spectrum: QUINOLINE-2-CARBONITRILE; EI-MS
Formula: C10H6N2
Exact mass: 154.0531
Instrument type: EI-MS
m/z	relative intensity
154	999
128	150
127	210
102	170
101	130
87	70
77	140
76	270
75	220
63	140
