Mass spectrum: N-METHYLANILINE; EI-MS
Formula: C7H9N
Exact mass: 107.0735
Instrument type: EI-MS
m/z	relative intensity
15	49
26	19
27	46
28	59
29	14
30	54
37	25
38	57
39	160
40	21
41	18
42	13
49	11
50	103
51	198
52	76
53	52
54	16
61	10
62	20
63	53
64	41
65	126
66	25
74	32
75	19
76	20
77	271
78	100
79	149
80	20
91	18
92	31
93	14
104	36
105	14
106	991
107	999
108	81
