Mass spectrum: NONANOIC ACID; EI-MS
Formula: C9H18O2
Exact mass: 158.13068
Instrument type: EI-MS
m/z	relative intensity
43	258
60	999
87	171
115	242
136	94
