Mass spectrum: 3-HEPTANONE; EI-MS
Formula: C7H14O
Exact mass: 114.10447
Instrument type: EI-MS
m/z	relative intensity
15	16
26	25
27	250
28	64
29	591
30	11
39	96
41	273
42	42
43	108
53	13
55	42
56	25
57	999
58	42
72	236
73	13
85	331
86	16
114	129
115	10
