Mass spectrum: HEXAETHYLDISILAZANE; EI-MS
Name: BIS(TRIETHYLSILYL)AMINE
Formula: C12H31NSi2
Exact mass: 245.1995
Instrument type: EI-MS
m/z	relative intensity
51	36
57	27
59	119
65	110
72	33
74	20
76	55
80	100
87	59
94	49
100	43
102	93
104	83
130	79
132	99
158	41
160	216
161	38
186	43
188	382
189	88
190	26
216	999
217	228
218	81
219	9
245	9
