Mass spectrum: 3-ACETOXY-4-PICOLINE; EI-MS
Formula: C8H9NO2
Exact mass: 151.06333
Instrument type: EI-MS
m/z	relative intensity
39	90
43	810
50	70
51	9
52	90
53	180
80	280
81	1
91	60
108	40
109	999
110	1
123	50
151	150
152	10
