Mass spectrum: 1-ISOPROPYL-3,4-DIMETHYL-2-PYRAZOLINE; EI-MS
Formula: C8H16N2
Exact mass: 140.13135
Instrument type: EI-MS
m/z	relative intensity
26	8
27	71
28	25
29	2
30	24
39	5
40	14
41	16
42	237
43	42
44	10
53	1
54	24
55	24
56	116
57	1
68	18
69	11
70	12
83	14
84	7
97	42
98	7
125	999
126	82
139	15
140	170
141	17
