Mass spectrum: IODOMETHYLTRIMETHYLSILANE; EI-MS
Formula: C4H11ISi
Exact mass: 213.96747
Instrument type: EI-MS
m/z	relative intensity
42	23
43	95
44	27
45	53
53	13
55	18
57	15
58	17
59	48
72	67
73	510
74	49
75	19
87	14
127	16
128	17
155	56
156	11
157	28
169	16
170	42
171	780
172	51
173	28
185	25
199	999
200	87
201	37
214	386
215	37
216	15
