Mass spectrum: METHYL 8-HYDROXY-5-METHYL-4-DECENOATE; EI-MS
Formula: C12H22O3
Exact mass: 214.15689
Instrument type: EI-MS
m/z	relative intensity
27	108
29	132
31	300
39	134
41	358
42	47
43	320
44	43
45	82
53	148
54	40
55	452
56	50
57	128
59	320
65	37
67	358
68	140
69	325
70	88
71	53
72	210
73	47
74	256
77	73
79	267
80	172
81	999
82	446
83	310
85	147
87	135
91	57
93	720
94	210
95	286
96	147
97	82
98	165
99	153
107	240
108	182
109	196
110	57
111	348
112	53
122	83
123	266
124	208
125	235
127	38
135	186
136	56
140	302
141	60
142	87
143	236
147	40
153	90
156	178
165	45
167	52
