Mass spectrum: ORTHO-CRESOL ACETATE; EI-MS
Name: ORTHO-TOLYL ACETATE
Formula: C9H10O2
Exact mass: 150.06808
Instrument type: EI-MS
m/z	relative intensity
15	50
27	42
28	29
38	12
39	64
43	278
50	27
51	61
52	39
53	31
63	21
65	18
77	111
78	40
79	79
80	51
89	16
90	87
91	35
107	276
108	999
109	78
150	146
151	16
