Mass spectrum: 2-METHYL-2-PROPANOL; EI-MS
Name: TERT-BUTYL ALCOHOL
Formula: C4H10O
Exact mass: 74.07316
Instrument type: EI-MS
m/z	relative intensity
15	44
27	53
28	55
29	94
31	375
39	54
41	234
42	22
43	92
55	19
56	23
57	88
59	999
60	31
