Mass spectrum: O-T-BUTYLCYCLOHEXYL ACETATE (CIS); EI-MS
Formula: C12H22O2
Exact mass: 198.16198
Instrument type: EI-MS
m/z	relative intensity
15	61
27	161
28	24
29	159
39	105
40	15
41	337
42	20
53	52
54	82
55	131
56	82
57	999
58	48
59	11
61	141
65	24
66	10
67	437
68	30
69	69
70	21
71	15
77	19
79	42
80	155
81	199
82	721
83	124
84	14
85	15
91	12
93	14
95	54
96	13
97	12
99	28
102	10
107	11
109	12
110	12
117	102
118	11
123	151
124	19
138	82
139	17
141	19
142	24
143	13
