Mass spectrum: 2-SEC-BUTYLCYCLOHEXANOL; EI-MS
Formula: C10H20O
Exact mass: 156.15142
Instrument type: EI-MS
m/z	relative intensity
27	90
28	45
29	206
31	3
39	100
40	15
41	320
42	6
43	200
44	72
45	30
51	3
53	70
54	60
55	432
56	13
57	470
58	44
59	45
65	3
66	30
67	435
68	140
69	19
70	333
71	188
72	32
73	3
77	20
79	60
80	40
81	51
82	486
83	270
84	60
85	8
93	30
95	120
96	190
97	7
98	80
99	43
108	35
109	999
110	165
111	30
123	175
124	4
125	30
127	100
138	244
139	40
