Mass spectrum: 3,4-DIMETHYLBENZOIC ACID TRIMETHYLSILYL ESTER; EI-MS
Formula: C12H18O2Si
Exact mass: 222.10761
Instrument type: EI-MS
m/z	relative intensity
45	148
47	75
51	65
53	7
73	100
75	84
77	326
78	9
79	300
96	250
103	205
104	8
105	385
133	999
134	100
163	94
164	148
165	63
207	788
208	14
222	102
