Mass spectrum: TRIDECANE; EI-MS
Formula: C13H28
Exact mass: 184.2191
Instrument type: EI-MS
m/z	relative intensity
39	48
40	15
41	406
42	93
43	999
44	37
53	21
54	23
55	191
56	103
57	969
58	42
67	15
68	13
69	81
70	122
71	584
72	34
82	10
83	31
84	71
85	333
97	15
98	49
99	65
111	3
112	32
113	48
126	19
127	36
140	9
141	22
154	6
155	11
184	47
185	7
