Mass spectrum: ISOBUTYRIC ANHYDRIDE; EI-MS
Formula: C8H14O3
Exact mass: 158.09429
Instrument type: EI-MS
m/z	relative intensity
15	14
26	14
27	142
28	33
39	69
40	14
41	177
42	50
43	817
44	28
81	999
82	46
