Mass spectrum: METHYL N-BUTYL ETHER; EI-MS
Formula: C5H12O
Exact mass: 88.08882
Instrument type: EI-MS
m/z	relative intensity
14	32
15	122
26	34
27	14
28	57
29	169
31	28
33	2
39	81
41	100
42	23
43	4
45	999
46	35
47	30
55	3
56	191
57	32
59	29
88	20
