Mass spectrum: TRANS-MENTHONE; EI-MS
Name: TRNS-5-METHYL-2-(1-METHYLETHYL)CYCLOHEXANONE
Formula: C10H18O
Exact mass: 154.13577
Instrument type: EI-MS
m/z	relative intensity
55	176
56	155
57	36
58	11
67	19
68	20
69	380
70	201
71	29
79	12
81	27
83	159
84	114
85	16
93	23
94	20
95	105
96	12
97	186
98	75
109	16
110	57
111	207
112	999
113	75
121	41
125	58
139	390
140	39
154	280
155	32
