Mass spectrum: BUTYRIC ANHYDRIDE; EI-MS
Formula: C8H14O3
Exact mass: 158.09429
Instrument type: EI-MS
m/z	relative intensity
15	14
26	11
27	146
28	22
29	18
39	58
40	10
41	144
42	44
43	514
44	19
65	18
70	20
81	999
82	47
