Mass spectrum: (3S,4S)-4-BENZYLOXYTETRAHYDROFURAN-3-OL; EI-MS
Formula: C11H14O3
Exact mass: 194.09429
Instrument type: EI-MS
m/z	relative intensity
44	25
45	36
58	59
68	3
69	59
70	344
71	41
73	5
85	36
91	763
92	226
93	4
103	398
104	73
105	102
106	10
107	999
108	50
116	36
117	3
120	23
121	102
134	151
135	5
194	301
195	61
196	14
