Mass spectrum: 1-OCTYLSILATRANE; EI-MS
Formula: C14H29NO3Si
Exact mass: 287.19167
Instrument type: EI-MS
m/z	relative intensity
102	14
130	25
132	14
149	16
174	999
175	125
176	48
287	18
