Mass spectrum: DELTA-OCTALACTONE; EI-MS
Formula: C8H14O2
Exact mass: 142.09938
Instrument type: EI-MS
m/z	relative intensity
15	28
26	28
27	295
28	33
29	143
31	16
38	17
39	219
40	44
41	396
42	559
43	346
44	37
51	15
53	29
54	28
55	383
56	76
57	22
67	23
68	22
69	52
70	406
71	564
72	31
73	12
83	13
86	16
99	999
100	50
114	73
124	27
142	17
