Mass spectrum: 2-(2-(4-CHLOROPHENYL)-TRANS-VINYL)PYRIDINE; EI-MS
Formula: C13H10ClN
Exact mass: 215.05018
Instrument type: EI-MS
m/z	relative intensity
50	19
51	53
52	60
62	1
63	26
75	33
76	49
77	4
78	51
79	52
89	105
90	4
126	11
127	10
150	10
151	3
152	52
153	16
177	12
178	9
179	89
180	51
214	999
215	29
216	363
217	98
218	10
