Mass spectrum: SEC-BUTYLHYDRAZONE METHYLETHYLKETONE; EI-MS
Name: 2-BUTANONE SEC-BUTYLHYDRAZONE
Formula: C8H18N2
Exact mass: 142.147
Instrument type: EI-MS
m/z	relative intensity
27	95
28	78
29	189
30	3
39	45
40	10
41	114
42	999
43	51
44	128
53	10
54	2
55	44
56	38
57	65
58	2
68	27
69	17
70	189
71	3
72	57
84	10
85	17
86	1
97	9
111	21
113	716
114	6
127	55
140	17
142	149
143	23
