Mass spectrum: PARA-ISOPROPYLPHENOL; EI-MS
Formula: C9H12O
Exact mass: 136.08882
Instrument type: EI-MS
m/z	relative intensity
27	22
28	50
39	43
41	3
50	12
51	20
53	19
55	2
59	15
60	16
60.5	11
63	1
65	43
66	19
77	120
78	2
79	16
91	100
92	12
93	3
94	16
95	13
103	125
104	1
107	27
119	13
120	20
121	999
122	90
135	15
136	289
137	34
