Mass spectrum: ETHYL 1-NAPHTHYLACETATE; EI-MS
Formula: C14H14O2
Exact mass: 214.09938
Instrument type: EI-MS
m/z	relative intensity
27	12
29	68
39	10
44	1
58	19
63	19
65	10
71	5
89	16
91	27
105	21
115	15
116	14
139	77
140	27
141	999
142	141
214	451
215	76
