Mass spectrum: 2-ETHYL-5-METHYLPHENOL; EI-MS
Formula: C9H12O
Exact mass: 136.08882
Instrument type: EI-MS
m/z	relative intensity
27	112
39	140
51	80
77	17
91	185
121	999
122	92
136	319
