Mass spectrum: 3,3,3-TRICHLORO-2-TRIMETHYLSILOXYPROPENE; EI-MS
Formula: C6H11Cl3OSi
Exact mass: 231.96447
Instrument type: EI-MS
m/z	relative intensity
41	171
43	29
54	42
67	66
69	240
72	36
73	999
74	89
75	42
89	74
93	469
94	36
95	174
96	80
98	46
113	264
115	182
117	33
124	27
197	105
199	80
217	474
218	52
219	492
220	52
221	164
232	129
234	127
236	45
