Mass spectrum: N-PHENYLACETYLPYRROLIDIN-2-ONE; EI-MS
Formula: C12H13NO2
Exact mass: 203.09463
Instrument type: EI-MS
m/z	relative intensity
41	22
43	5
56	20
57	10
60	5
65	5
69	60
70	5
71	7
73	5
81	8
84	20
85	5
86	75
87	4
89	4
90	150
91	103
92	10
94	3
95	3
97	3
112	24
118	999
119	90
120	5
122	4
129	2
149	5
203	187
204	25
205	3
