Mass spectrum: PHENYLSILANE; EI-MS
Formula: C6H8Si
Exact mass: 108.03953
Instrument type: EI-MS
m/z	relative intensity
26	27
27	72
28	75
29	213
30	56
31	92
37	27
38	35
39	116
41	21
42	26
43	38
45	28
46	13
49	26
50	233
51	388
52	121
53	999
53.5	23
54	236
55	300
56	32
57	16
63	13
65	58
66	101
67	101
68	15
73	16
74	54
75	26
76	36
77	323
78	250
79	261
80	91
81	184
82	73
83	14
93	66
101	24
103	64
104	24
105	676
106	933
107	960
108	944
109	128
110	36
