Mass spectrum: ORTHO-PHENETIDINE; EI-MS
Name: 2-AMINOPHENETOL
Formula: C8H11NO
Exact mass: 137.08406
Instrument type: EI-MS
m/z	relative intensity
15	10
26	24
27	123
28	73
29	44
30	18
38	24
39	89
40	16
41	34
42	18
50	31
51	60
52	107
53	172
54	42
62	10
63	37
64	34
65	110
66	21
77	10
78	26
79	26
80	697
81	65
91	26
92	63
93	26
94	16
108	999
109	655
110	44
122	18
136	10
137	742
138	71
