Mass spectrum: PENTYL ACETATE; EI-MS
Formula: C7H14O2
Exact mass: 130.09938
Instrument type: EI-MS
m/z	relative intensity
15	64
27	87
28	25
29	83
31	17
39	51
40	11
41	133
42	287
43	999
44	28
45	11
55	234
56	18
57	17
58	42
61	283
69	76
70	545
71	42
73	110
85	10
87	15
101	12
