Mass spectrum: CYCLOPENTYLACETIC ACID TRIMETHYLSILYL ESTER; EI-MS
Name: TRIMETHYLSILYL CYCLOPENTANECARBOXYLATE
Formula: C10H20O2Si
Exact mass: 200.12326
Instrument type: EI-MS
m/z	relative intensity
43	111
44	41
45	201
58	10
73	983
74	102
75	999
76	9
77	168
93	98
117	724
118	9
132	168
167	102
185	921
186	160
