Mass spectrum: 11ALPHA-ALLYL-2ALPHA-METHOXY-5BETA,7,7,11BETA-TETRAMETHYL-8ALPHA-TRICYCLO(6.3.0.0(1,5))UNDECANE; EI-MS
Formula: C19H32O
Exact mass: 276.24532
Instrument type: EI-MS
m/z	relative intensity
71	59
72	32
95	37
107	6
109	37
121	123
133	43
135	4
147	429
148	32
149	48
159	3
161	86
162	91
163	457
164	6
175	86
176	21
177	27
179	4
188	343
189	64
196	59
201	8
202	64
203	999
204	177
205	12
215	21
229	161
235	829
236	12
244	161
276	32
