Mass spectrum: 2-BUTANONE; EI-MS
Formula: C4H8O
Exact mass: 72.05751
Instrument type: EI-MS
m/z	relative intensity
14	14
15	65
26	41
27	130
28	10
29	172
39	19
41	13
42	63
43	999
44	22
57	74
72	217
