Mass spectrum: 2,3-DIMETHLPYRAZINE; EI-MS
Formula: C6H8N2
Exact mass: 108.06875
Instrument type: EI-MS
m/z	relative intensity
41	370
42	401
52	10
53	40
54	40
66	81
67	999
68	172
80	20
81	30
93	82
107	43
108	732
109	206
