Mass spectrum: BUTYL BUTYRYLLACTATE; EI-MS
Formula: C11H20O4
Exact mass: 216.13616
Instrument type: EI-MS
m/z	relative intensity
27	93
29	80
39	32
41	14
42	42
43	330
44	11
45	5
55	27
56	35
57	90
70	2
71	999
72	55
73	13
115	12
116	12
143	28
172	24
