Mass spectrum: 2-TERT-BUTYLPYRIDINE; EI-MS
Formula: C9H13N
Exact mass: 135.1048
Instrument type: EI-MS
m/z	relative intensity
26	20
27	88
28	94
29	5
30	11
31	10
38	21
39	15
40	27
41	164
42	28
43	2
44	82
45	30
50	51
51	16
52	139
52.5	11
53	70
54	2
55	33
56	23
57	51
58.5	5
59	16
60	14
62	11
63	3
64	14
65	111
66	38
67	2
68	17
69	14
71	11
74	1
75	16
76	17
77	92
78	21
79	275
80	125
81	16
82	2
83	11
84	23
85	10
89	2
90	24
91	174
92	299
93	59
94	58
95	16
97	11
98	1
99	10
101	11
102	14
103	3
104	119
105	45
106	799
107	8
108	13
110	10
111	10
115	1
116	17
117	80
118	160
119	7
120	999
121	139
122	13
130	1
131	13
132	23
133	11
134	39
135	261
136	28
