Mass spectrum: TRIMETHOXYPHENYLSILANE; EI-MS
Formula: C9H14O3Si
Exact mass: 198.07122
Instrument type: EI-MS
m/z	relative intensity
39	16
45	74
50	28
51	70
59	283
60	56
61	93
77	59
78	47
90	423
91	483
92	58
105	26
107	264
108	28
120	999
121	426
122	79
123	29
136	46
137	97
167	185
168	35
198	266
199	40
200	13
