Mass spectrum: TETRAISOAMYLAMMONIUM IODIDE; EI-MS
Formula: C20H44IN
Exact mass: 425.25184
Instrument type: EI-MS
m/z	relative intensity
71	79
98	54
100	28
114	279
127	151
128	233
154	11
156	17
170	999
171	163
198	6
226	15
227	61
228	11
254	5
298	4
424	0
425	1
723	0
724	0
