Mass spectrum: BENZOIC ACID PENTYL ESTER; EI-MS
Name: PENTYL BENZOATE
Formula: C12H16O2
Exact mass: 192.11503
Instrument type: EI-MS
m/z	relative intensity
41	17
42	100
43	27
55	83
77	143
78	15
79	58
105	763
106	70
122	197
123	999
124	80
135	12
192	27
193	6
