Mass spectrum: PYRIDINE; EI-MS
Formula: C5H5N
Exact mass: 79.0422
Instrument type: EI-MS
m/z	relative intensity
1	26
25	29
26	223
27	7
28	57
37	48
38	55
39	12
40	29
49	56
50	347
51	43
52	738
53	102
75	32
76	2
78	75
79	999
80	61
