Mass spectrum: BUTANE; EI-MS
Formula: C4H10
Exact mass: 58.07825
Instrument type: EI-MS
m/z	relative intensity
14	10
15	13
26	41
27	27
28	264
29	367
38	17
39	11
40	11
41	282
42	282
43	999
44	32
50	11
51	11
55	1
57	26
58	139
59	8
