Mass spectrum: 1,1-DIMETHYL-3-PHENYLPROPYL BUTYRATE; EI-MS
Name: DIMETHYL PHENYLETHYL CARBINYL BUTYRATE
Formula: C15H22O2
Exact mass: 234.16198
Instrument type: EI-MS
m/z	relative intensity
18	11
27	128
28	15
29	30
39	80
40	14
41	178
42	26
43	431
44	12
51	35
52	12
53	17
55	20
56	39
59	26
60	12
63	19
65	117
68	22
71	420
72	16
77	53
78	29
79	28
89	22
90	12
91	848
92	57
103	27
104	34
105	95
115	18
116	14
117	24
129	20
131	999
132	115
145	23
146	517
147	120
148	11
