Mass spectrum: PHENETHYL ACETATE; EI-MS
Formula: C10H12O2
Exact mass: 164.08373
Instrument type: EI-MS
m/z	relative intensity
15	30
17	35
18	195
27	1
28	90
37	10
38	30
41	1
42	5
43	600
44	10
50	1
51	40
52	10
62	10
63	2
64	10
65	60
66	10
71	1
73	10
75	40
76	40
77	2
89	10
91	185
92	25
93	1
103	45
105	999
106	125
