Mass spectrum: HEPTANEDIOIC ACID BIS(TRIMETHYLSILYL)ESTER; EI-MS
Name: DI(TRIMETHYLSILYL) HEPTANEDIOATE
Formula: C13H28O4Si2
Exact mass: 304.15261
Instrument type: EI-MS
m/z	relative intensity
43	98
45	117
55	284
69	24
73	999
74	119
75	730
81	12
83	91
97	239
116	94
117	21
125	631
129	191
147	573
148	11
149	206
155	829
156	130
157	10
171	117
173	373
186	142
199	12
204	100
217	216
289	478
290	11
291	49
