Mass spectrum: TEREPHTHALIC ACID BIS(TRIMETHYLSILYL) ESTER; EI-MS
Formula: C14H22O4Si2
Exact mass: 310.10566
Instrument type: EI-MS
m/z	relative intensity
43	118
47	111
49	86
63	10
65	111
73	360
75	366
76	16
77	999
78	192
93	385
95	14
103	341
104	105
221	254
251	18
295	645
296	167
