Mass spectrum: LINOLELADIC ACID TRIMETHYLSILYL ESTER; EI-MS
Name: TRANS-9,TRANS-12-OCTADECADIENOIC ACID TRIMETHYLSILYL ESTER
Formula: C21H40O2Si
Exact mass: 352.27976
Instrument type: EI-MS
m/z	relative intensity
53	143
54	400
55	411
67	93
68	305
69	259
73	992
75	999
79	381
80	273
81	836
82	39
83	195
93	233
94	214
95	59
96	314
97	167
107	163
108	14
109	249
110	163
117	414
121	21
123	125
129	287
131	125
135	18
136	119
145	100
149	114
150	16
178	120
262	111
337	155
338	58
