Mass spectrum: DINONYL PHTHALATE; EI-MS
Name: PHTHALIC ACID DINONYL ESTER
Formula: C26H42O4
Exact mass: 418.30831
Instrument type: EI-MS
m/z	relative intensity
57	283
58	11
69	34
70	126
71	301
72	17
83	24
84	16
98	12
111	112
112	11
126	41
127	340
128	34
149	999
150	101
151	11
159	51
167	131
168	13
174	96
175	13
176	39
205	31
275	84
276	60
277	13
293	432
294	85
295	11
320	23
362	36
363	10
418	3
