Mass spectrum: PENTANE-1,5-DIAL; EI-MS
Formula: C5H8O2
Exact mass: 100.05243
Instrument type: EI-MS
m/z	relative intensity
26	33
27	343
28	94
29	32
30	11
31	33
37	11
38	2
39	162
40	20
41	331
42	8
43	351
44	999
45	35
53	3
54	35
55	85
56	18
57	22
58	11
71	35
72	364
73	2
81	85
82	362
83	21
