Mass spectrum: 2,6-DICHLORO-PARA-QUINONE; EI-MS
Formula: C6H2Cl2O2
Exact mass: 175.94318
Instrument type: EI-MS
m/z	relative intensity
50	53
53	275
54	11
60	265
61	11
62	90
63	21
84	16
85	149
86	21
87	77
88	516
89	33
90	155
113	357
114	24
115	119
116	139
118	38
120	403
121	22
122	277
123	20
124	44
141	207
142	17
143	69
147	15
148	211
149	24
150	139
152	22
154	11
176	999
177	72
178	703
179	48
180	138
181	12
182	14
