Mass spectrum: 3-AMINOPROPIONITRILE; EI-MS
Formula: C3H6N2
Exact mass: 70.0531
Instrument type: EI-MS
m/z	relative intensity
14	13
15	37
17	14
26	13
27	30
28	191
29	19
30	999
31	15
38	17
39	26
40	46
41	61
42	139
43	12
51	10
52	6
69	10
70	5
71	9
