Mass spectrum: 4-METHYLCYCLOHEXANONE; EI-MS
Formula: C7H12O
Exact mass: 112.08882
Instrument type: EI-MS
m/z	relative intensity
15	21
26	37
27	264
28	161
29	187
38	17
39	215
40	46
41	492
42	150
43	78
50	19
51	29
52	15
53	57
54	31
55	999
56	341
57	208
58	18
67	33
68	80
69	127
70	193
71	14
79	55
81	13
83	251
85	15
94	116
95	14
96	12
97	73
112	365
113	31
