Mass spectrum: PROPIONIC ACID; EI-MS
Formula: C3H6O2
Exact mass: 74.03678
Instrument type: EI-MS
m/z	relative intensity
14	26
15	30
17	11
18	35
25	27
26	247
27	707
28	999
29	791
30	110
31	44
41	11
42	41
43	23
44	16
45	521
46	37
47	25
53	20
55	92
56	79
57	243
58	11
73	339
74	535
75	16
