Mass spectrum: TRANS-3-PHENYL-2-PROPENAL; EI-MS
Formula: C9H8O
Exact mass: 132.05751
Instrument type: EI-MS
m/z	relative intensity
50	105
51	316
52	101
53	19
54	17
55	19
61	13
62	28
63	65
65	17
66	25
74	51
75	51
76	52
77	401
78	261
79	17
89	12
91	30
101	15
102	87
103	540
104	238
105	30
115	11
131	999
132	735
133	74
