Mass spectrum: NITROSOPIPERIDINE; EI-MS
Formula: C5H10N2O
Exact mass: 114.07931
Instrument type: EI-MS
m/z	relative intensity
51	33
52	26
53	84
54	166
55	999
56	442
57	59
67	42
68	22
69	21
82	39
83	41
84	49
114	267
115	18
