Mass spectrum: NAPHTHALENE; EI-MS
Formula: C10H8
Exact mass: 128.0626
Instrument type: EI-MS
m/z	relative intensity
27	10
37	12
38	17
39	41
50	83
51	103
52	22
61	20
62	41
63	78
64	32
73	13
74	86
75	85
76	63
77	54
78	44
86	17
87	28
89	16
98	28
99	16
100	16
101	34
102	166
103	15
126	74
127	127
128	999
129	111
