Mass spectrum: METHYL TRI-O-METHYL-BETA-D-RIBOFRANOSIDE; EI-MS
Formula: C9H18O5
Exact mass: 206.11542
Instrument type: EI-MS
m/z	relative intensity
27	16
29	41
31	17
33	1
39	10
41	53
42	11
43	4
44	11
45	277
47	10
55	2
57	17
59	37
69	13
71	4
73	50
74	16
75	271
83	2
85	26
87	11
88	56
89	2
99	18
101	999
102	60
114	2
115	37
129	16
143	16
161	13
175	12
