Mass spectrum: VALERALDEHYDE; EI-MS
Formula: C5H10O
Exact mass: 86.07316
Instrument type: EI-MS
m/z	relative intensity
39	33
41	315
42	60
43	86
44	999
45	229
49	17
53	17
55	30
57	265
58	225
68	17
73	30
86	33
