Mass spectrum: ETHYLBENZENE; EI-MS
Formula: C8H10
Exact mass: 106.07825
Instrument type: EI-MS
m/z	relative intensity
27	23
39	51
50	29
51	92
52	30
63	26
65	79
77	75
78	55
79	40
89	17
91	999
92	74
103	31
105	60
106	330
107	26
