Mass spectrum: BIS(2-METHOXYETHYL) ETHER; EI-MS
Name: DIGLYME
Formula: C6H14O3
Exact mass: 134.09429
Instrument type: EI-MS
m/z	relative intensity
15	131
27	33
28	49
29	207
31	209
33	10
41	14
43	77
44	11
45	269
58	447
59	999
60	34
87	18
89	170
102	19
