Mass spectrum: OCTANAL DIALLYL ACETAL; EI-MS
Formula: C14H26O2
Exact mass: 226.19328
Instrument type: EI-MS
m/z	relative intensity
27	98
29	130
31	22
39	148
41	999
42	74
43	141
44	15
53	15
54	12
55	191
56	29
57	233
58	16
59	12
67	69
68	13
69	55
70	11
71	24
79	13
81	453
82	35
83	38
84	25
85	12
97	37
109	85
111	11
127	457
128	30
169	122
170	12
