Mass spectrum: 3-METHYL-1,2-CYCLOPENTANEDIOL; EI-MS
Formula: C6H12O2
Exact mass: 116.08373
Instrument type: EI-MS
m/z	relative intensity
29	240
41	320
43	330
55	41
57	999
69	430
83	640
98	77
116	40
