Mass spectrum: 1,6-HEXANEDIAMINE; EI-MS
Formula: C6H16N2
Exact mass: 116.13135
Instrument type: EI-MS
m/z	relative intensity
18	65
27	19
28	49
29	14
30	999
31	38
39	18
41	40
42	43
43	32
44	52
45	51
55	27
56	135
57	11
58	28
69	17
70	27
72	24
73	14
86	43
87	90
100	59
101	29
