Mass spectrum: METHYL 3-NITROPHENYL KETONE; EI-MS
Name: 3-NITROACETOPHENONE
Formula: C8H7NO3
Exact mass: 165.04259
Instrument type: EI-MS
m/z	relative intensity
27	10
30	28
38	22
39	4
42	19
43	506
44	12
50	19
51	82
62	22
63	56
64	3
65	52
74	68
75	110
76	30
77	90
89	30
90	16
91	9
92	68
104	355
105	28
119	2
122	27
150	999
151	82
165	33
166	30
