Mass spectrum: ALPHA-ACETYLCINNAMIC ACID ETHYL ESTER; EI-MS
Formula: C13H14O3
Exact mass: 218.09429
Instrument type: EI-MS
m/z	relative intensity
29	219
39	38
43	608
50	5
51	110
63	50
75	62
76	9
77	207
102	234
103	320
104	9
107	186
129	243
131	619
135	18
144	145
147	142
159	28
171	5
173	320
175	142
189	151
203	32
217	801
218	999
219	130
