Mass spectrum: N-PROPYL ISOBUTYRATE; EI-MS
Formula: C7H14O2
Exact mass: 130.09938
Instrument type: EI-MS
m/z	relative intensity
15	17
26	14
27	183
28	32
29	28
31	29
39	72
40	16
41	230
42	137
43	999
44	33
45	13
55	10
57	13
59	41
71	558
72	27
73	31
88	21
89	469
90	23
101	38
