Mass spectrum: 8-HYDROXY-3,7-DIMETHYL-2,6-OCTADIENEYL ACETATE(Z); EI-MS
Formula: C12H20O3
Exact mass: 212.14124
Instrument type: EI-MS
m/z	relative intensity
28	35
29	56
39	57
42	132
43	999
44	40
53	75
55	113
57	28
67	157
68	336
69	100
71	50
77	30
79	90
80	40
81	152
82	38
83	60
84	362
85	120
91	55
92	30
93	170
94	68
95	60
97	35
105	43
107	85
109	42
119	153
121	48
123	20
126	55
127	32
135	90
146	160
147	22
