Mass spectrum: NORBORNANE; EI-MS
Name: BICYCLO(2.2.1)HEPTANE
Formula: C7H12
Exact mass: 96.0939
Instrument type: EI-MS
m/z	relative intensity
31	177
32	160
45	55
46	25
54	327
55	139
56	12
66	130
67	805
68	847
69	54
81	999
82	70
95	46
96	532
97	51
