Mass spectrum: 5,7-DIHYDROXY-6,8-DIMETHYL-4'-METHOXYFLAVANONE; EI-MS
Name: MATTEUCINOL
Formula: C18H18O5
Exact mass: 314.11542
Instrument type: EI-MS
m/z	relative intensity
32	56
39	80
40	12
41	7
43	94
44	26
45	20
50	2
51	73
52	36
53	47
54	1
55	108
56	19
57	17
63	2
65	48
66	28
67	57
68	1
69	138
74	11
76	16
77	15
78	107
79	31
81	32
82	3
83	124
89	13
91	71
95	8
96	39
97	16
102	20
103	10
104	102
105	32
106	10
107	2
110	10
111	10
115	14
119	3
121	52
123	56
124	138
125	2
128	11
131	18
134	81
135	2
137	10
141	13
142	52
149	4
151	124
152	911
153	87
154	1
165	14
178	13
179	61
180	999
181	173
182	17
193	15
206	3
207	378
208	44
241	34
255	1
256	12
266	37
267	13
282	3
283	222
284	996
285	200
286	3
313	19
314	173
315	31
