Mass spectrum: 1,1-DICHLORO-4-PHENYL-1-BUTENE; EI-MS
Formula: C10H10Cl2
Exact mass: 200.01596
Instrument type: EI-MS
m/z	relative intensity
44	18
50	11
51	35
63	21
64	12
65	79
77	19
78	10
89	13
91	999
92	78
117	19
119	18
127	10
128	15
129	15
164	22
165	48
166	12
167	16
200	13
