Mass spectrum: 2-PROPYLAMINE; EI-MS
Name: ISO-PROPYLAMINE
Formula: C3H9N
Exact mass: 59.0735
Instrument type: EI-MS
m/z	relative intensity
15	53
18	258
26	11
27	5
28	64
30	25
38	10
39	4
40	21
41	65
42	101
43	4
44	999
45	20
58	49
59	21
