Mass spectrum: 3-AMINO-1-PROPENE; EI-MS
Name: ALLYLAMINE
Formula: C3H7N
Exact mass: 57.05785
Instrument type: EI-MS
m/z	relative intensity
14	42
15	27
25	23
26	104
26.5	17
27	151
28	626
29	189
30	999
31	24
37	30
38	53
39	211
40	31
41	97
42	34
51	24
52	47
54	68
55	27
56	983
57	388
58	15
