Mass spectrum: MALEIC ACID DIMETHYL ESTER; EI-MS
Formula: C6H8O4
Exact mass: 144.04226
Instrument type: EI-MS
m/z	relative intensity
15	204
26	69
27	21
28	48
29	31
31	11
39	16
41	13
53	39
54	60
55	28
59	242
82	24
85	97
113	999
114	74
