Mass spectrum: 2-HYDROXY-4,5-DIMETHOXYACETOPHENONE; EI-MS
Formula: C10H12O4
Exact mass: 196.07356
Instrument type: EI-MS
m/z	relative intensity
43	87
95	14
107	29
110	26
111	14
121	14
125	59
135	83
136	12
137	17
138	33
153	51
163	24
167	23
181	999
182	115
183	13
196	977
197	109
198	13
