Mass spectrum: ISOPROPYL BUTYRATE; EI-MS
Formula: C7H14O2
Exact mass: 130.09938
Instrument type: EI-MS
m/z	relative intensity
15	33
26	12
27	174
28	32
29	19
31	13
39	81
40	14
41	218
42	91
43	999
44	33
45	33
55	13
59	137
60	143
71	714
72	32
73	64
88	119
89	279
90	13
102	31
115	68
130	10
