Mass spectrum: BUTYL ETHYL ETHER; EI-MS
Formula: C6H14O
Exact mass: 102.10447
Instrument type: EI-MS
m/z	relative intensity
15	22
26	22
27	236
28	7
29	386
30	15
31	739
39	8
40	10
41	260
42	26
43	7
44	16
45	77
55	43
56	22
57	235
58	12
59	999
60	3
73	39
87	13
102	25
