Mass spectrum: ISOPROPYL BROMIDE; EI-MS
Formula: C3H7Br
Exact mass: 121.97311
Instrument type: EI-MS
m/z	relative intensity
15	17
26	27
27	293
28	20
38	20
39	27
40	115
41	20
42	323
43	34
44	999
45	34
106	17
108	14
121	118
123	115
