Mass spectrum: DIMETHYL SULFIDE; EI-MS
Formula: C2H6S
Exact mass: 62.01902
Instrument type: EI-MS
m/z	relative intensity
13	10
14	26
15	87
27	182
32	13
33	10
34	11
35	283
37	11
44	49
45	646
46	427
47	999
48	32
49	39
57	26
58	33
59	26
61	318
62	919
63	30
64	38
