Mass spectrum: DIETHYL 2,3-DIFORMYLSUCCINATE; EI-MS
Formula: C10H14O6
Exact mass: 230.07904
Instrument type: EI-MS
m/z	relative intensity
55	194
56	54
57	48
75	68
83	999
84	75
85	46
100	586
103	107
110	83
115	219
128	81
129	530
130	45
143	100
156	67
157	452
158	55
171	49
184	129
185	253
216	52
230	174
