Mass spectrum: 2,6,8-TRIMETHYL-4-NONYL ACETATE; EI-MS
Name: 1-ISOBUTYL-3,5-DIMETHYLHEXYL ACETATE
Formula: C14H28O2
Exact mass: 228.20893
Instrument type: EI-MS
m/z	relative intensity
27	53
29	60
39	34
41	188
42	29
43	999
44	30
53	12
55	126
56	97
57	154
58	36
59	14
61	14
67	19
68	14
69	303
70	73
71	38
82	15
83	196
84	119
85	52
86	15
97	42
98	15
110	28
111	205
112	99
129	63
168	26
