Mass spectrum: EXO-NORBORNEOL; EI-MS
Name: ISONORBORNEOL
Formula: C7H12O
Exact mass: 112.08882
Instrument type: EI-MS
m/z	relative intensity
29	25
39	10
40	68
41	25
42	52
43	24
44	39
52	41
53	21
54	105
55	73
56	153
58	47
66	470
67	436
68	469
69	62
70	105
71	47
77	15
79	597
80	45
81	101
82	13
83	161
84	64
93	41
94	999
95	90
97	62
111	14
112	23
