Mass spectrum: 2-METHOXYETHYL ACETATE; EI-MS
Name: METHYL CELLOSOLVE ACETATE
Formula: C5H10O3
Exact mass: 118.06299
Instrument type: EI-MS
m/z	relative intensity
14	16
15	149
27	24
28	46
29	95
31	43
42	32
43	999
44	27
45	514
46	12
58	425
59	27
73	36
88	14
