Mass spectrum: BIPHENYL; EI-MS
Formula: C12H10
Exact mass: 154.07825
Instrument type: EI-MS
m/z	relative intensity
39	60
50	78
51	110
52	3
62	25
63	71
64	72
74	5
75	50
76	175
77	100
115	6
126	30
127	28
128	40
151	8
152	205
153	263
154	999
155	128
