Mass spectrum: 4-BUTOXYBENZOIC ACID TRIMETHYLSILYL ESTER; EI-MS
Name: TRIMETHYLSILYL 4-BUTOXYBENZOATE
Formula: C14H22O3Si
Exact mass: 266.13382
Instrument type: EI-MS
m/z	relative intensity
57	32
65	58
73	141
75	23
77	180
92	51
93	103
121	49
122	51
151	348
177	109
195	999
196	129
207	348
208	45
251	76
252	129
266	225
