Mass spectrum: ETHYL BENZOATE; EI-MS
Formula: C9H10O2
Exact mass: 150.06808
Instrument type: EI-MS
m/z	relative intensity
26	17
27	89
29	66
39	20
45	16
50	106
51	277
52	17
74	25
75	18
76	31
77	530
78	48
105	999
106	86
122	254
123	18
149	11
150	157
151	14
