Mass spectrum: 5-METHYLFURFURAL; EI-MS
Formula: C6H6O2
Exact mass: 110.03678
Instrument type: EI-MS
m/z	relative intensity
15	23
26	46
27	255
28	41
29	132
37	46
38	63
39	156
41	15
42	24
43	115
49	29
50	164
51	194
52	108
53	664
54	53
55	10
79	20
80	14
81	123
95	10
109	871
110	999
111	59
