Mass spectrum: 1,2,3,4-TETRAMETHOXYBUTANE; EI-MS
Formula: C8H18O4
Exact mass: 178.12051
Instrument type: EI-MS
m/z	relative intensity
39	19
41	68
42	16
43	8
44	16
45	999
46	22
47	3
53	7
55	14
56	10
57	2
58	281
59	354
60	17
69	1
71	124
72	25
73	94
74	2
75	427
76	14
85	10
87	2
88	277
89	212
90	11
101	40
102	32
103	48
134	5
146	2
104	8
115	11
119	14
120	1
133	82
