Mass spectrum: ETHOSUXIMIDE; EI-MS
Name: 3-ETHYL-3-METHYL-2,5-PYRROLIDINEDIONE
Formula: C7H11NO2
Exact mass: 141.07898
Instrument type: EI-MS
m/z	relative intensity
52	16
54	45
55	947
56	52
67	18
68	21
69	73
70	717
71	45
85	81
98	25
113	999
114	63
141	27
