Mass spectrum: PYRIDINE-ALPHA-CARBOXYLIC ACID TRIMETHYLSILYL ESTER; EI-MS
Name: PICOLINIC ACID TRIMETHYLSILYL ESTER
Formula: C9H13NO2Si
Exact mass: 195.07156
Instrument type: EI-MS
m/z	relative intensity
43	38
44	32
45	22
47	1
49	6
50	12
51	68
52	2
55	16
58	9
59	16
61	1
68	42
69	12
72	38
73	11
74	9
77	25
78	285
79	2
83	6
84	6
92	9
93	3
95	6
106	51
108	6
122	1
136	224
137	29
138	6
150	6
151	32
152	51
166	6
167	9
168	19
180	999
181	142
182	4
195	9
