Mass spectrum: 1,5-DIMETHYLBICYCLO(3.2.2)NON-3-EN-2ONE; EI-MS
Formula: C11H16O
Exact mass: 164.12012
Instrument type: EI-MS
m/z	relative intensity
18	267
28	119
55	99
67	32
68	189
79	200
80	128
81	40
82	86
91	139
93	390
94	27
95	218
96	59
105	75
106	28
107	999
108	787
109	333
120	24
121	309
131	188
135	60
136	13
146	83
149	186
164	562
165	116
