Mass spectrum: 2-METHYLBUTYRIC ACID; EI-MS
Formula: C5H10O2
Exact mass: 102.06808
Instrument type: EI-MS
m/z	relative intensity
15	27
16	11
26	49
27	327
28	99
29	576
30	30
31	21
38	19
39	185
40	22
41	575
42	39
43	41
45	144
46	11
50	17
51	15
53	22
55	78
56	90
57	581
58	24
59	22
60	29
69	42
73	118
74	999
75	30
87	227
88	11
