Mass spectrum: ACETIC ACID ISOPROPENYL ESTER; EI-MS
Name: ISOPROPENYL ACETATE
Formula: C5H8O2
Exact mass: 100.05243
Instrument type: EI-MS
m/z	relative intensity
14	13
15	61
27	21
28	11
29	16
38	11
39	55
40	10
41	70
42	39
43	999
44	22
57	25
58	160
72	73
100	44
