Mass spectrum: PENTAMETHYLENEHYDRAZONE ACETALDEHYDE; EI-MS
Name: ACETALDEHYDE PENTAMETHYLENEHYDRAZONE
Formula: C7H14N2
Exact mass: 126.1157
Instrument type: EI-MS
m/z	relative intensity
29	244
30	137
39	131
40	4
41	311
42	619
43	83
44	17
53	31
54	57
55	363
56	18
57	101
67	23
68	33
69	36
70	285
71	109
73	32
82	12
83	155
84	250
85	202
97	27
111	202
125	999
126	810
127	62
