Mass spectrum: TRIMETHYLSILYL HEXANOATE; EI-MS
Formula: C9H20O2Si
Exact mass: 188.12326
Instrument type: EI-MS
m/z	relative intensity
42	69
43	63
45	86
47	62
55	68
60	53
61	70
73	999
74	99
75	990
76	72
117	263
131	76
132	122
173	481
174	67
188	9
