Mass spectrum: 2-BUTOXY-N-(2-(DIETHYLAMINO)ETHYL)-3-PYRIDINECARBOXAMIDE; EI-MS
Formula: C16H27N3O2
Exact mass: 293.21033
Instrument type: EI-MS
m/z	relative intensity
42	2
43	2
56	6
57	6
58	37
70	6
71	31
72	12
84	14
85	6
86	999
87	126
88	2
97	1
99	209
100	17
113	3
121	2
122	14
165	9
178	5
221	10
222	2
264	1
