Mass spectrum: 1-ETHOXY-3-TRIMETHYLSILYL-2-PROPANONE; EI-MS
Formula: C8H18O2Si
Exact mass: 174.10761
Instrument type: EI-MS
m/z	relative intensity
58	20
59	17
73	201
74	19
75	63
103	16
115	999
116	120
117	51
129	13
130	268
131	39
132	15
159	19
174	2
