Mass spectrum: 1,6-DINITROCARBAZOLE; EI-MS
Formula: C12H7N3O4
Exact mass: 257.04366
Instrument type: EI-MS
m/z	relative intensity
39	64
40	12
41	336
42	10
43	579
51	12
53	18
54	4
55	370
56	90
57	400
58	1
59	12
60	79
61	15
65	1
67	90
68	53
69	257
70	6
71	148
72	10
73	71
74	1
77	18
79	20
80	18
81	10
82	53
83	158
84	84
85	7
87	13
91	16
93	20
94	2
95	67
96	46
97	112
98	6
99	16
107	18
109	28
110	2
111	43
112	18
113	10
115	1
121	12
123	18
124	12
125	2
126	13
127	13
129	26
135	1
137	26
138	41
139	16
152	3
153	35
154	15
163	12
164	21
165	163
166	20
167	13
180	1
181	122
182	15
183	18
184	4
194	12
210	12
211	368
212	3
226	41
227	262
228	18
236	2
239	10
257	999
258	86
