Mass spectrum: 2-(3-BENZOYLPHENYL)BUTYRIC ACID METHYL ESTER; EI-MS
Formula: C18H18O3
Exact mass: 282.12559
Instrument type: EI-MS
m/z	relative intensity
43	2
45	3
56	1
57	1
59	12
69	3
70	2
71	3
77	67
82	2
91	6
97	1
105	792
106	60
107	3
109	2
111	2
115	6
116	2
117	31
118	10
119	5
131	26
132	3
133	2
135	5
145	43
146	17
147	3
149	2
152	2
153	1
165	7
166	2
167	89
168	13
171	51
173	2
175	2
177	35
178	6
179	3
180	3
181	42
182	8
183	1
193	4
194	10
195	508
196	84
197	8
203	1
205	303
206	51
207	12
208	6
209	2
219	2
221	3
222	59
223	999
224	204
225	32
226	4
250	2
253	9
254	42
255	7
267	6
282	579
283	102
284	14
