Mass spectrum: PENTYL FORMATE; EI-MS
Name: AMYL FORMATE
Formula: C6H12O2
Exact mass: 116.08373
Instrument type: EI-MS
m/z	relative intensity
15	21
26	29
27	323
28	115
29	487
30	14
31	432
38	15
39	215
40	39
41	505
42	999
43	246
44	26
45	52
47	90
53	24
54	15
55	697
56	93
57	75
59	22
69	41
70	661
71	46
73	30
87	51
