Mass spectrum: (E)-2-1-(4-METHYLPHENYL)-3-(1-PYRROLIDINYL)-1-PROPENYL-PYRIDINE; EI-MS
Formula: C19H22N2
Exact mass: 278.1783
Instrument type: EI-MS
m/z	relative intensity
38	31
39	7
40	48
41	9
42	19
43	3
50	3
51	4
52	19
53	19
54	74
55	2
56	5
57	5
61	7
62	2
63	8
64	29
65	9
66	1
67	13
68	12
69	38
70	0
73	1
74	9
75	10
76	1
77	29
78	64
79	29
80	2
81	5
82	19
83	69
84	18
85	13
86	3
87	1
88	1
89	37
90	19
91	29
92	1
93	60
94	15
95	3
96	15
97	27
98	1
101	11
102	3
103	42
104	42
105	33
106	0
107	1
108	1
109	8
110	2
111	9
114	11
115	53
116	4
117	119
118	74
119	19
120	0
124	13
125	1
126	9
127	3
128	40
129	32
130	29
131	4
132	13
133	13
134	9
138	2
139	29
140	12
141	15
142	0
143	10
144	20
145	18
146	0
147	8
151	15
152	29
153	2
154	17
155	11
156	17
157	2
158	22
159	17
160	7
163	0
164	12
165	33
166	25
167	6
168	19
169	4
170	10
171	1
172	29
173	56
174	14
176	1
177	15
178	29
179	29
180	9
181	119
182	69
183	49
184	2
185	19
186	24
187	19
188	0
189	3
190	29
191	94
192	10
193	224
194	194
195	34
196	13
197	34
198	14
199	8
200	17
201	34
202	1
203	3
204	5
205	49
206	174
207	367
208	92
209	999
210	169
211	19
217	0
218	11
219	19
220	29
221	17
222	54
223	19
224	4
232	0
233	4
234	19
235	29
236	0
246	4
247	14
248	19
249	2
262	4
263	14
275	7
276	3
277	65
278	585
279	156
280	3
281	1
