Mass spectrum: TRIS(TRIMETHYLSILYL)METHANE; EI-MS
Formula: C10H28Si3
Exact mass: 232.14988
Instrument type: EI-MS
m/z	relative intensity
43	24
44	15
45	87
59	105
73	347
74	25
75	11
85	17
99	13
113	24
115	12
117	13
129	249
130	40
131	30
201	35
217	999
218	252
219	115
220	20
