Mass spectrum: METHYL ACETATE; EI-MS
Formula: C3H6O2
Exact mass: 74.03678
Instrument type: EI-MS
m/z	relative intensity
14	40
15	228
29	79
30	10
31	21
41	10
42	103
43	999
44	22
45	10
59	69
74	193
