Mass spectrum: N-PHENYLMORPHOLINE; EI-MS
Formula: C10H13NO
Exact mass: 163.09971
Instrument type: EI-MS
m/z	relative intensity
77	133
78	21
91	29
104	289
105	999
106	99
132	40
162	32
163	434
164	56
