Mass spectrum: 3-METHYLTRICYCLO(5.3.1.0(3,8))UNDECANE-2,6-DIONE; EI-MS
Formula: C12H16O2
Exact mass: 192.11503
Instrument type: EI-MS
m/z	relative intensity
39	373
40	71
41	425
42	166
43	124
51	123
52	120
53	352
54	210
55	602
57	59
65	159
66	163
67	391
68	288
69	156
71	77
77	340
78	321
79	750
80	729
81	686
82	251
83	117
84	57
91	385
93	562
94	524
95	534
96	616
105	310
107	66
110	745
113	192
122	655
131	259
132	166
135	401
137	379
145	198
146	166
149	494
163	697
173	161
176	76
191	999
