Mass spectrum: BENZYL PROPIONATE; EI-MS
Formula: C10H12O2
Exact mass: 164.08373
Instrument type: EI-MS
m/z	relative intensity
28	11
29	91
57	359
58	16
65	22
77	22
78	11
79	111
80	13
89	20
90	193
91	572
92	49
105	29
106	11
107	104
108	999
109	89
164	408
165	51
