Mass spectrum: METHYL P-AMINOSALICYLATE; EI-MS
Formula: C8H9NO3
Exact mass: 167.05824
Instrument type: EI-MS
m/z	relative intensity
39	50
51	70
52	120
53	100
68	80
78	75
79	380
80	160
107	420
108	60
135	999
136	460
137	50
167	670
168	70
