Mass spectrum: (1S*,2R*,3R*)-2-(2,3-EPOXY-1,7,11-TRIMETHYLCYCLOTETRADECA-7(E),11(E)-DIENYL)ETHYL ACETATE; EI-MS
Formula: C21H34O3
Exact mass: 334.25079
Instrument type: EI-MS
m/z	relative intensity
81	500
105	35
106	529
107	2
109	44
119	30
123	29
133	2
134	270
135	22
137	22
145	2
147	19
148	81
149	579
161	3
162	21
229	999
230	158
234	5
256	162
275	15
316	422
