Mass spectrum: BUTYL BENZOATE; EI-MS
Formula: C11H14O2
Exact mass: 178.09938
Instrument type: EI-MS
m/z	relative intensity
27	41
41	103
51	141
56	25
77	458
91	12
105	999
106	10
122	201
123	706
124	47
