Mass spectrum: 3-PHENYLPYRAZOLE; EI-MS
Formula: C9H8N2
Exact mass: 144.06875
Instrument type: EI-MS
m/z	relative intensity
27	18
28	42
38	13
39	6
40	22
41	23
50	50
51	11
52	20
61	11
62	33
63	9
64	21
65	31
72	39
74	2
75	24
76	28
77	173
78	2
86	10
87	16
88	17
89	11
90	109
91	17
102	12
103	1
104	32
113	12
114	17
115	22
116	71
117	134
118	22
143	12
144	999
145	109
