Mass spectrum: TRIMETHADIONE; EI-MS
Name: 3,5,5-TRIMETHYL-2,4-OXAZOLIDINEDIONE
Formula: C6H9NO3
Exact mass: 143.05824
Instrument type: EI-MS
m/z	relative intensity
56	68
57	50
58	898
59	245
69	10
70	62
100	45
115	22
127	13
128	319
129	19
143	999
144	73
