Mass spectrum: (4S,5S)-2-ETHYLIDENE-4,5-BIS(METHOXYMETHYL)-1,3-DIOXOLANE; EI-MS
Formula: C9H16O4
Exact mass: 188.10486
Instrument type: EI-MS
m/z	relative intensity
55	32
56	27
57	20
58	3
68	17
70	39
71	76
84	7
85	250
87	30
100	61
113	3
114	76
115	91
128	22
143	18
158	34
187	25
188	999
189	30
