Mass spectrum: TRIETHYLENE GLYCOL DIACETATE; EI-MS
Formula: C10H18O6
Exact mass: 234.11034
Instrument type: EI-MS
m/z	relative intensity
43	158
70	29
71	13
73	32
87	999
88	48
99	14
101	14
114	10
117	46
131	12
