Mass spectrum: FORMIC ACID ISOBUTYL ESTER; EI-MS
Name: ISOBUTYL FORMATE
Formula: C5H10O2
Exact mass: 102.06808
Instrument type: EI-MS
m/z	relative intensity
15	16
26	14
27	225
28	81
29	164
31	419
32	48
33	120
38	14
39	155
40	32
41	763
42	289
43	999
44	117
45	41
55	99
56	721
57	113
59	61
60	361
61	96
73	26
74	17
