Mass spectrum: ACETALDEHYDE DIISOPROPYL ACETAL; EI-MS
Formula: C8H18O2
Exact mass: 146.13068
Instrument type: EI-MS
m/z	relative intensity
18	136
20	15
28	17
39	5
40	11
41	88
42	27
43	53
45	999
47	42
58	26
59	9
61	28
69	41
87	435
88	2
89	130
131	82
