Mass spectrum: TRANS-P-MENTHANE; EI-MS
Formula: C10H20
Exact mass: 140.1565
Instrument type: EI-MS
m/z	relative intensity
27	115
29	103
39	123
40	18
41	300
42	49
43	137
51	11
53	64
54	62
55	999
56	84
57	34
65	11
67	77
68	44
69	179
70	20
77	14
79	14
81	205
82	19
83	69
95	12
96	523
97	912
98	80
140	142
141	14
