Mass spectrum: (3-PYRIDYL)METHYL PENTADECANOATE; EI-MS
Name: BETA-PICOLINYL PENTADECANOATE
Formula: C21H35NO2
Exact mass: 333.26678
Instrument type: EI-MS
m/z	relative intensity
51	19
52	15
53	30
54	23
55	240
56	48
57	113
60	15
63	20
64	34
65	197
66	22
67	31
68	14
69	76
71	24
78	15
79	19
80	40
81	24
83	26
85	26
91	42
92	791
93	596
94	72
95	16
96	11
97	28
106	16
108	781
109	350
110	75
111	15
120	10
148	24
151	614
152	59
164	999
165	141
166	23
176	11
177	12
178	142
179	44
180	10
181	12
185	15
190	15
192	74
193	41
194	16
204	11
206	231
207	57
218	11
220	217
221	51
222	12
223	14
225	13
234	234
235	46
242	12
248	255
249	58
250	15
262	274
263	56
274	16
276	119
277	16
290	286
291	65
292	16
304	115
305	33
332	96
333	125
334	50
