Mass spectrum: 2,6-DIMETHYL-4-HEPTANONE; EI-MS
Name: DIISOBUTYL KETONE
Formula: C9H18O
Exact mass: 142.13577
Instrument type: EI-MS
m/z	relative intensity
29	23
41	62
43	49
57	663
58	185
59	14
69	17
86	999
87	58
100	34
127	69
142	212
143	28
