Mass spectrum: N-TERT-BUTOXYCARBONYL-2-(1-AZIDO-4-HYDROXYBUTYL)PYRROLIDINE; EI-MS
Formula: C13H24N4O3
Exact mass: 284.18484
Instrument type: EI-MS
m/z	relative intensity
56	16
57	61
58	9
70	31
71	44
96	24
114	999
115	9
140	21
155	95
170	227
171	5
230	30
240	30
284	14
