Mass spectrum: 3-METHYL-2,5-PIPERADINEDIONE; EI-MS
Name: CYCLOGLYCYL-ALANINE
Formula: C5H8N2O2
Exact mass: 128.05858
Instrument type: EI-MS
m/z	relative intensity
28	139
29	75
30	777
31	14
42	90
43	110
44	453
55	13
56	109
57	485
58	29
70	13
84	13
85	999
86	56
99	13
100	33
128	280
129	26
