Mass spectrum: CIS-1-HYDROXY-3-PHENYLTETRALIN; EI-MS
Name: 1,2,3,4-TETRAHYDRO-CIS-3-PHENYLNAPHTHALEN-1-OL
Formula: C16H16O
Exact mass: 224.12012
Instrument type: EI-MS
m/z	relative intensity
51	39
63	12
65	45
77	9
78	46
79	11
89	23
91	42
92	59
103	59
104	94
105	7
115	53
118	12
119	528
120	999
121	65
128	60
129	22
130	1
131	18
145	24
146	193
165	1
178	24
205	36
206	494
207	7
223	18
224	494
225	68
