Mass spectrum: ISOPROPYL PROPIONATE; EI-MS
Formula: C6H12O2
Exact mass: 116.08373
Instrument type: EI-MS
m/z	relative intensity
15	35
26	22
27	175
28	45
29	314
30	11
31	16
39	50
40	11
41	146
42	63
43	571
44	19
45	40
55	10
56	14
57	999
58	37
59	109
73	10
74	48
75	294
76	11
101	104
116	9
