Mass spectrum: TETRAHYDROGERANYL METHYL-ETHYL-ACETATE; EI-MS
Name: TETRAHYDROGERANYL 2-METHYLBUTYRATE
Formula: C15H30O2
Exact mass: 242.22458
Instrument type: EI-MS
m/z	relative intensity
17	18
27	64
29	244
39	56
41	445
42	85
43	476
45	10
53	24
54	28
55	379
56	587
57	999
58	51
67	34
68	31
69	367
70	955
71	344
72	18
74	24
81	28
82	31
83	202
84	232
85	444
86	24
87	17
95	12
96	22
97	93
98	31
99	15
102	25
103	451
104	23
111	151
112	89
113	11
125	51
129	35
140	302
141	31
157	29
185	34
