Mass spectrum: BUTYL GLYOXYLATE DIBUTYLACETAL; EI-MS
Formula: C14H28O4
Exact mass: 260.19876
Instrument type: EI-MS
m/z	relative intensity
27	42
28	18
29	251
31	16
39	27
41	247
42	16
43	22
47	18
55	37
56	62
57	999
58	68
103	263
104	16
131	18
159	180
160	21
187	6
188	1
