Mass spectrum: HEXANAL DI-TRANS-2-HEXENYL ACETAL; EI-MS
Formula: C18H34O2
Exact mass: 282.25588
Instrument type: EI-MS
m/z	relative intensity
27	72
29	86
39	67
41	333
42	41
43	94
44	14
53	23
54	69
55	571
56	61
57	120
67	79
69	23
71	20
81	40
82	95
83	999
84	84
95	21
97	12
99	44
100	12
109	23
111	10
113	30
139	44
165	14
