Mass spectrum: 2-ETHYLTHIO-5-AMINOTHIAZOLO(5,4-D)PYRIMIDINE; EI-MS
Formula: C7H8N4S2
Exact mass: 212.01904
Instrument type: EI-MS
m/z	relative intensity
212	999
184	470
179	890
142	280
139	140
125	100
124	80
97	210
85	140
83	110
