Mass spectrum: ISOBUTYL SALICYLATE; EI-MS
Formula: C11H14O3
Exact mass: 194.09429
Instrument type: EI-MS
m/z	relative intensity
27	57
29	61
38	16
39	156
41	137
43	26
53	24
55	15
56	17
57	99
63	39
64	50
65	158
66	12
92	172
93	74
120	999
121	337
122	26
138	297
139	25
194	126
195	15
