Mass spectrum: 2-(2-HYDROXYPHENYL)-4-PIPERIDINO-6-TRIFLUOROMETHYLPYRIMIDINE; EI-MS
Formula: C16H16F3N3O
Exact mass: 323.12455
Instrument type: EI-MS
m/z	relative intensity
50	23
52	20
53	21
54	1
55	29
56	10
63	14
65	1
67	14
68	11
69	22
71	1
75	15
79	32
81	11
82	2
84	141
85	13
102	11
106	1
109.5	11
117	11
118	29
119	9
120	73
141	18
147.5	14
149	3
161	18
161.5	15
171	11
186	1
211	16
212	35
213	11
239	5
240	83
241	17
255	11
267	5
268	105
269	46
280	40
281	3
282	27
294	248
295	49
296	1
304	21
306	11
308	28
309	1
321	14
322	124
323	999
324	17
325	27
