Mass spectrum: PHENYL 3-PYRIDYL KETONE; EI-MS
Formula: C12H9NO
Exact mass: 183.06841
Instrument type: EI-MS
m/z	relative intensity
27	14
39	24
50	160
51	470
52	35
65	11
74	40
75	43
76	28
77	67
78	321
79	20
93	10
95	12
104	29
105	999
106	270
107	14
154	37
155	30
182	225
183	915
184	116
185	9
