Mass spectrum: 1,3-DICHLORO-2-PROPANOL; EI-MS
Name: GLYCEROL ALPHA,ALPHA'-DICHLOROHYDRIN
Formula: C3H6Cl2O
Exact mass: 127.97957
Instrument type: EI-MS
m/z	relative intensity
43	125
78	16
79	999
80	28
81	343
