Mass spectrum: 4XI,11XI-DIPHENYLTRICYCLO(5.3.1.0(3,8))UNDECANE-2,6-DIONE; EI-MS
Formula: C23H22O2
Exact mass: 330.16198
Instrument type: EI-MS
m/z	relative intensity
41	50
77	98
91	264
96	161
103	112
104	109
105	67
107	54
109	52
115	72
117	85
119	59
123	57
124	321
129	63
130	63
131	285
132	61
135	999
136	9
198	163
199	55
213	113
226	274
227	73
326	63
330	39
