Mass spectrum: PROPIONITRILE; EI-MS
Formula: C3H5N
Exact mass: 55.0422
Instrument type: EI-MS
m/z	relative intensity
15	46
25	14
26	140
27	129
28	999
29	31
31	17
37	11
38	20
39	25
40	43
41	38
50	13
51	77
52	107
53	72
54	716
55	114
