Mass spectrum: 2,4,5-TRICHLOROPHENYL ACETATE; EI-MS
Formula: C8H5Cl3O2
Exact mass: 237.93551
Instrument type: EI-MS
m/z	relative intensity
42	22
43	999
44	20
49	1
50	10
53	10
60	13
61	5
62	69
63	12
72	26
73	3
74	21
83	21
85	13
96	2
97	128
98	12
99	40
107	5
108	11
109	35
131	10
132	4
133	30
134	26
135	15
160	1
161	10
162	12
167	55
169	5
171	15
196	503
197	40
198	49
199	34
200	158
201	10
202	1
238	88
240	86
242	26
