Mass spectrum: BUTYLBIS(TRIMETHYLSILYL)AMINE; EI-MS
Formula: C10H27NSi2
Exact mass: 217.1682
Instrument type: EI-MS
m/z	relative intensity
41	24
43	25
45	97
47	15
59	193
60	20
72	15
73	507
74	43
75	75
86	225
87	23
94	14
100	116
101	19
102	43
114	25
117	17
128	340
129	43
130	62
131	30
174	999
175	178
176	89
202	256
203	53
204	23
217	33
