Mass spectrum: 2-METHYLTETRAHYDROFURAN; EI-MS
Name: TETRAHYDRO-2-METHYLFURAN
Formula: C5H10O
Exact mass: 86.07316
Instrument type: EI-MS
m/z	relative intensity
14	29
15	128
18	18
26	85
27	373
28	173
29	284
30	30
31	88
32	49
37	20
38	48
39	339
40	90
41	625
42	474
43	803
44	40
45	220
50	23
51	23
53	35
54	17
55	72
56	199
57	38
58	34
61	17
67	11
69	35
70	20
71	999
72	47
73	12
83	14
84	26
85	65
86	192
87	37
