Mass spectrum: ISOPROPYL PROPIONATE; EI-MS
Formula: C6H12O2
Exact mass: 116.08373
Instrument type: EI-MS
m/z	relative intensity
27	25
29	147
41	65
42	51
43	535
44	20
45	22
56	12
57	999
58	36
59	123
74	58
75	377
76	14
101	123
116	6
