Mass spectrum: 2-BENZYL-2-METHYLCYCLOHEXANONE; EI-MS
Formula: C14H18O
Exact mass: 202.13577
Instrument type: EI-MS
m/z	relative intensity
44	33
51	34
55	148
65	76
67	37
77	41
83	71
91	999
92	139
105	37
111	33
115	38
117	86
118	30
129	40
131	46
143	65
145	37
158	45
159	98
187	54
202	234
203	45
