Mass spectrum: 2-METHYLBUTYL ISOBUTYRATE; EI-MS
Formula: C9H18O2
Exact mass: 158.13068
Instrument type: EI-MS
m/z	relative intensity
31	16
32	19
39	77
41	245
42	95
43	999
44	23
45	21
53	15
55	146
56	21
57	57
69	15
70	608
71	891
72	34
73	17
85	44
87	14
88	17
89	71
101	44
