Mass spectrum: BENZYLTRIETHYLAMMONIUM BROMIDE; EI-MS
Formula: C13H22BrN
Exact mass: 271.09356
Instrument type: EI-MS
m/z	relative intensity
18	22
30	103
39	38
44	45
58	116
65	145
70	19
72	15
86	536
91	999
92	96
101	91
108	12
148	84
163	16
170	46
182	26
192	0
