Mass spectrum: 2,4,4-TRIMETHYLHEPT-6-EN-3-ONE; EI-MS
Formula: C10H18O
Exact mass: 154.13577
Instrument type: EI-MS
m/z	relative intensity
41	318
42	41
43	556
53	27
55	780
56	44
65	19
67	96
69	41
70	53
71	528
72	30
73	37
75	20
82	223
83	999
84	73
111	329
112	26
117	18
118	18
131	57
139	19
154	249
155	29
