Mass spectrum: ADAMANTANE; EI-MS
Formula: C10H16
Exact mass: 136.1252
Instrument type: EI-MS
m/z	relative intensity
51	18
52	11
53	53
54	36
55	55
65	31
66	46
67	171
68	44
69	22
77	85
78	66
79	369
80	331
81	154
82	55
91	54
92	79
93	506
94	239
95	195
96	15
107	95
108	43
121	93
135	259
136	999
137	115
