Mass spectrum: 6,6-DIMETHYL-8BETA-IODOMETHYL-1ALPHA,5ALPHA-BICYCLO(3.3.0)OCTAN-2-ONE; EI-MS
Formula: C11H17IO
Exact mass: 292.03241
Instrument type: EI-MS
m/z	relative intensity
69	42
83	331
95	54
105	5
107	43
108	10
109	38
119	3
121	176
122	32
123	34
137	3
147	193
148	47
151	16
165	999
166	61
167	13
292	2
