Mass spectrum: 2-(TRIMETHYLSILYL)OXY-DOCOSANOIC ACID TRIMETHYLSILYL ESTER; EI-MS
Name: TRIMETHYLSILYL 2-TRIMETHYLSILOXYDOCOSANOATE
Formula: C28H60O3Si2
Exact mass: 500.4081
Instrument type: EI-MS
m/z	relative intensity
43	122
44	16
55	144
57	26
67	50
69	152
71	152
73	57
75	220
77	21
81	50
82	5
83	233
85	110
91	97
95	9
96	46
97	237
103	199
111	14
129	139
147	377
148	50
149	5
383	999
384	292
385	72
457	5
485	55
