Mass spectrum: P-CHLOROBENZALDEHYDE; EI-MS
Name: 4-CHLOROBENZALDEHYDE
Formula: C7H5ClO
Exact mass: 140.00289
Instrument type: EI-MS
m/z	relative intensity
26	10
27	20
29	35
37	47
37.5	16
38	67
39	22
44	12
49	35
50	259
51	185
52	48
55	12
60	10
61	23
62	20
63	18
73	42
74	146
75	289
76	86
77	171
78	13
84	16
85	39
86	10
87	13
110	11
111	555
112	85
113	184
114	27
139	999
140	710
141	377
142	244
143	15
