Mass spectrum: ISOBUTYL ALCOHOL; EI-MS
Name: 2-METHYL-1-PROPANOL
Formula: C4H10O
Exact mass: 74.07316
Instrument type: EI-MS
m/z	relative intensity
15	42
26	37
27	360
28	42
29	178
30	13
31	549
32	12
33	492
37	14
38	39
39	222
40	43
41	632
42	591
43	999
44	34
45	31
53	10
55	58
56	43
57	53
59	38
73	16
74	101
