Mass spectrum: STIGMASTEROL; EI-MS
Formula: C29H48O
Exact mass: 412.37052
Instrument type: EI-MS
m/z	relative intensity
29	81
41	327
43	387
53	31
55	999
57	206
67	239
68	28
69	518
70	46
71	135
77	59
79	234
80	33
81	587
82	122
83	722
84	67
85	70
91	221
92	42
93	275
94	75
95	325
96	80
97	423
98	29
105	257
106	42
107	303
108	52
109	201
110	65
111	43
117	65
118	24
119	192
120	85
121	179
122	45
123	233
124	56
125	23
129	41
131	112
132	30
133	276
134	51
135	154
137	116
139	90
143	66
144	26
145	257
146	53
147	215
148	29
149	90
151	123
157	70
158	62
159	282
160	64
161	145
162	29
163	114
166	36
171	40
173	98
174	22
175	76
414	36
176	31
177	55
178	21
185	56
187	62
189	34
191	24
199	75
201	34
203	27
211	33
213	155
214	36
215	77
217	45
227	37
228	27
229	68
230	24
231	60
239	26
241	38
245	23
253	46
254	23
255	367
256	81
257	31
258	60
267	31
270	47
271	244
272	110
273	109
281	32
282	25
283	47
285	39
299	48
300	160
301	62
314	50
351	115
352	56
369	117
370	21
379	29
394	36
397	34
412	277
413	90
