Mass spectrum: 4-AMINOBENZOPHENONE; EI-MS
Formula: C13H11NO
Exact mass: 197.08406
Instrument type: EI-MS
m/z	relative intensity
39	11
51	16
65	76
66	10
77	73
78	13
92	118
93	16
105	64
120	999
121	82
141	14
167	14
168	20
169	16
180	13
195	16
196	39
197	801
198	152
199	15
