Mass spectrum: 1-ETHOXY-1-(TRANS-3-HEXENYLOXY)ETHANE; EI-MS
Name: ACETALDEHYDE ETHYL TRANS-3-HEXENYL ACETAL
Formula: C10H20O2
Exact mass: 172.14633
Instrument type: EI-MS
m/z	relative intensity
15	21
26	10
27	124
29	132
31	62
39	92
41	247
42	26
43	99
44	54
45	772
46	16
53	30
54	22
55	307
56	21
57	11
67	90
69	22
70	23
72	18
73	999
74	33
82	54
83	218
84	13
89	24
103	31
127	16
