Mass spectrum: METHACRYLOYL CHLORIDE; EI-MS
Formula: C4H5ClO
Exact mass: 104.00289
Instrument type: EI-MS
m/z	relative intensity
15	25
26	47
27	47
35	22
36	33
37	77
38	116
39	586
40	90
41	760
42	33
43	40
49	18
50	13
51	14
53	34
55	13
63	37
69	999
70	44
76	77
77	35
78	25
79	18
81	26
89	12
