Mass spectrum: META TOLUALDEHYDE; EI-MS
Formula: C8H8O
Exact mass: 120.05751
Instrument type: EI-MS
m/z	relative intensity
27	20
29	14
37	12
38	29
39	181
40	15
41	38
43	11
45	10
50	54
51	90
61	16
62	44
63	110
64	25
65	279
66	16
77	14
89	58
90	30
91	999
92	90
119	529
120	505
121	45
