Mass spectrum: TRIPHENYL PHOSPHATE; EI-MS
Formula: C18H15O4P
Exact mass: 326.0708
Instrument type: EI-MS
m/z	relative intensity
77	21
93	13
94	59
95	11
140	10
141	12
142	11
168	12
169	61
170	140
171	22
215	70
216	11
227	11
228	69
229	35
232	70
233	141
234	21
246	22
249	28
325	519
326	999
327	188
328	26
