Mass spectrum: 1-PHENYL-2-PROPANOL; EI-MS
Name: BENZYLMETHYLCARBINOL
Formula: C9H12O
Exact mass: 136.08882
Instrument type: EI-MS
m/z	relative intensity
27	12
29	11
39	27
43	36
45	180
51	17
63	19
65	67
77	20
89	14
90	13
91	498
92	999
93	82
103	23
117	11
121	23
136	37
