Mass spectrum: METHOTRIMEPRAZINE; EI-MS
Formula: C19H24N2OS
Exact mass: 328.16093
Instrument type: EI-MS
m/z	relative intensity
42	49
58	999
100	79
135	5
166	9
167	9
185	29
198	2
199	9
210	29
227	9
228	4
229	39
233	19
242	39
243	2
268	19
282	29
283	29
328	139
