Mass spectrum: ALPHA-METHYL-BENZENEETHANAMINE; EI-MS
Name: AMPHETAMINE
Formula: C9H13N
Exact mass: 135.1048
Instrument type: EI-MS
m/z	relative intensity
40	29
41	14
42	39
43	2
44	999
45	39
51	24
59	0
60	14
62	9
63	24
64	0
65	49
77	19
89	14
90	2
91	89
92	29
103	14
104	1
115	19
116	9
117	14
118	1
119	9
120	34
135	4
