Mass spectrum: DIPHENYL; EI-MS
Name: 1,11-BIPHENYL
Formula: C12H10
Exact mass: 154.07825
Instrument type: EI-MS
m/z	relative intensity
50	24
51	55
52	12
63	47
64	63
74	17
75	26
76	174
77	86
78	11
89	12
102	24
115	42
126	22
127	26
128	31
139	17
150	19
151	64
152	228
153	330
154	999
155	132
