Mass spectrum: 2-METHYLFURAN; EI-MS
Formula: C5H6O
Exact mass: 82.04186
Instrument type: EI-MS
m/z	relative intensity
27	212
28	96
29	19
39	658
40	19
41	10
42	10
43	89
51	386
52	71
53	763
54	208
55	150
80	14
81	601
82	999
83	45
