Mass spectrum: 1-(3,4-DEHYDROTETRAHYDRO-2-FURANYL)-5-FLUOROURACIL; EI-MS
Formula: C8H7FN2O3
Exact mass: 198.04407
Instrument type: EI-MS
m/z	relative intensity
39	370
40	190
41	410
51	0
52	10
57	40
58	150
59	1
60	250
68	690
69	999
70	3
71	100
79	20
86	40
87	4
88	120
98	60
99	60
125	0
126	120
127	10
130	590
131	1
198	150
199	30
