Mass spectrum: CYCLOHEXANE; EI-MS
Formula: C6H12
Exact mass: 84.0939
Instrument type: EI-MS
m/z	relative intensity
27	111
28	127
29	67
39	155
40	36
41	542
42	241
43	105
44	19
53	26
54	42
55	321
56	999
57	34
67	19
69	258
83	30
84	627
85	31
