Mass spectrum: ACETIC ACID BENZYL ESTER; EI-MS
Name: BENZYL ACETATE
Formula: C9H10O2
Exact mass: 150.06808
Instrument type: EI-MS
m/z	relative intensity
15	45
27	21
28	17
29	10
38	18
39	91
41	21
43	502
44	18
455	21
50	45
51	118
52	31
62	18
63	56
64	18
65	144
77	148
78	42
79	283
80	27
89	134
90	423
91	553
92	43
105	33
107	174
108	999
109	79
150	283
151	27
