Mass spectrum: 1-(3-FURYL)-3-BUTENE-1-OL; EI-MS
Formula: C8H10O2
Exact mass: 138.06808
Instrument type: EI-MS
m/z	relative intensity
42	273
45	25
50	37
51	91
52	24
53	27
55	18
57	37
60	19
62	24
63	72
64	19
65	192
66	30
67	13
69	233
77	39
78	20
79	15
89	29
90	24
91	888
92	101
95	117
96	46
97	999
98	53
105	16
119	67
120	570
121	58
138	64
