Mass spectrum: N-BENZYL GLYCOLAMIDE; EI-MS
Formula: C9H11NO2
Exact mass: 165.07898
Instrument type: EI-MS
m/z	relative intensity
28	84
29	40
30	69
31	187
39	61
50	29
51	77
63	24
65	118
77	79
78	43
79	61
89	23
91	999
92	194
104	70
105	24
106	120
107	48
118	58
119	55
147	41
165	285
166	28
