Mass spectrum: ROBUSTIC ACID; EI-MS
Formula: C22H20O6
Exact mass: 380.12599
Instrument type: EI-MS
m/z	relative intensity
77	180
91	100
105	60
115	4
120	70
135	70
148	230
162	2
165	120
175	130
190	60
201	1
202	80
203	130
217	950
233	3
294	50
307	60
323	140
337	2
350	80
351	60
352	10
365	7
366	40
367	30
378	170
380	999
382	70
