Mass spectrum: METHYL CYANOFORMATE; EI-MS
Formula: C3H3NO2
Exact mass: 85.01638
Instrument type: EI-MS
m/z	relative intensity
14	61
15	361
26	104
27	70
28	129
29	303
30	51
31	480
41	386
42	27
44	54
45	282
54	999
55	114
59	209
84	93
