Mass spectrum: 1,2,3,4-TETRAHYDRO-CIS-2-PHENYL-1-NAPHTHOL; EI-MS
Formula: C16H16O
Exact mass: 224.12012
Instrument type: EI-MS
m/z	relative intensity
91	100
92	10
104	10
105	1
116	5
118	5
119	3
120	999
121	80
122	7
128	23
129	1
130	3
132	10
133	50
134	1
146	60
147	7
191	10
196	1
204	10
205	30
206	930
207	16
208	20
222	3
223	10
224	30
225	50
226	10
