Mass spectrum: DIHYDROCARVENYL ACETATE(EQUATORIAL); EI-MS
Formula: C12H20O2
Exact mass: 196.14633
Instrument type: EI-MS
m/z	relative intensity
41	17
42	3
43	162
44	5
53	6
54	2
55	48
56	7
57	5
67	62
68	159
69	53
70	7
71	7
72	22
77	5
78	5
79	221
80	63
81	118
82	106
83	31
84	9
85	6
86	5
91	11
92	47
93	374
94	216
95	96
96	16
97	32
98	7
99	2
105	12
106	7
107	586
108	207
109	39
110	18
111	16
112	2
119	5
120	3
121	507
122	50
123	5
124	3
125	2
135	16
136	999
137	131
138	8
152	38
153	7
154	35
155	4
