Mass spectrum: 2-UNDECANONE; EI-MS
Formula: C11H22O
Exact mass: 170.16707
Instrument type: EI-MS
m/z	relative intensity
15	22
27	113
28	26
29	152
39	73
41	248
42	62
43	893
44	18
53	17
54	13
55	98
56	29
57	98
58	999
59	290
67	16
68	13
69	27
70	26
71	271
72	16
81	16
82	19
83	18
84	10
85	56
95	13
96	11
110	24
112	30
127	11
155	11
170	28
