Mass spectrum: 1,2-DICHLOROETHANE; EI-MS
Formula: C2H4Cl2
Exact mass: 97.96901
Instrument type: EI-MS
m/z	relative intensity
42	51
43	612
44	28
45	300
46	16
47	20
48	32
49	627
50	19
51	212
57	12
58	279
59	419
60	44
61	208
62	999
63	354
64	348
65	101
73	23
74	250
75	13
97	14
98	293
99	13
100	191
102	31
