Mass spectrum: 7-CYANO-2-ETHYL-5,8-DIMETHOXY-1,3,4,9-TETRAAZAPHENALENE; EI-MS
Formula: C14H13N5O2
Exact mass: 283.10692
Instrument type: EI-MS
m/z	relative intensity
39	13
40	31
41	39
42	24
43	75
44	750
45	19
56	2
58	54
72	75
73	999
74	6
282	13
283	17
