Mass spectrum: 11-METHYLDODECANOIC ACID METHYL ESTER; EI-MS
Formula: C14H28O2
Exact mass: 228.20893
Instrument type: EI-MS
m/z	relative intensity
44	44
55	215
56	47
57	12
67	29
69	106
71	41
74	999
75	144
77	29
79	23
81	3
83	82
84	20
85	32
87	54
88	50
95	29
97	88
98	2
101	50
109	17
111	17
115	3
129	59
130	23
138	17
143	14
144	29
157	17
168	32
185	17
197	20
199	20
228	71
229	17
