Mass spectrum: NORHALKENDIN; EI-MS
Formula: C12H8O5
Exact mass: 232.03717
Instrument type: EI-MS
m/z	relative intensity
133	90
161	500
189	410
203	50
214	60
217	230
232	999
233	150
