Mass spectrum: 2-OCTENAL; EI-MS
Formula: C8H14O
Exact mass: 126.10447
Instrument type: EI-MS
m/z	relative intensity
39	105
41	999
42	538
43	180
44	15
54	30
55	805
56	255
57	535
58	270
60	15
67	210
68	105
69	243
70	787
71	120
79	60
80	30
81	60
82	309
83	553
84	153
93	75
95	45
97	195
98	120
111	18
