Mass spectrum: CYCLOPENTANOL; EI-MS
Formula: C5H10O
Exact mass: 86.07316
Instrument type: EI-MS
m/z	relative intensity
15	26
26	34
27	142
28	74
29	177
30	55
31	62
32	22
38	24
39	148
40	56
41	197
42	76
43	136
44	390
45	135
46	13
50	10
51	10
53	27
55	41
56	26
57	999
58	513
59	48
67	73
68	67
69	21
71	28
72	13
86	74
87	38
