Mass spectrum: 5-ACETOXY-3-METHOXY-2,6-DIMETHYL-(6R)-((2R)-2-METHYLBUTYRYLOXY)-2,3-CYCLOHEXADIEN-1-ONE; EI-MS
Formula: C16H22O6
Exact mass: 310.14164
Instrument type: EI-MS
m/z	relative intensity
41	210
42	45
43	545
44	5
45	115
53	25
55	60
56	5
57	999
58	45
59	30
60	9
69	45
74	220
83	45
87	6
101	30
127	30
128	30
139	7
140	30
141	110
142	110
154	3
157	125
166	120
167	40
168	7
169	30
170	30
182	20
183	6
184	180
185	20
205	20
210	2
212	15
241	15
258	45
310	10
