Mass spectrum: ETHYL ISOBUTYRATE; EI-MS
Formula: C6H12O2
Exact mass: 116.08373
Instrument type: EI-MS
m/z	relative intensity
15	25
26	23
27	209
28	43
29	458
30	11
31	12
39	67
40	14
41	212
42	141
43	999
44	34
45	100
55	14
57	13
70	15
71	434
72	21
73	35
88	90
89	61
101	22
116	159
117	12
