Mass spectrum: PARA-FLUOROBENZOIC ACID; EI-MS
Formula: C7H5FO2
Exact mass: 140.02736
Instrument type: EI-MS
m/z	relative intensity
28	52
31	13
37	22
38	17
39	22
45	26
47.5	10
49	13
50	109
51	44
56	15
57	29
61	14
61.5	11
62	15
63	20
68	39
69	58
70	38
73	15
74	71
75	277
76	25
83	21
94	13
95	761
96	65
123	999
124	73
140	699
141	59
