Mass spectrum: GLYCEROL TRIPALMITATE; EI-MS
Name: TRIPALMITIN
Formula: C51H98O6
Exact mass: 806.73634
Instrument type: EI-MS
m/z	relative intensity
27	10
29	10
41	15
42	11
43	41
55	31
56	18
57	85
60	31
69	31
70	16
71	71
73	39
81	18
82	12
83	47
84	84
85	62
87	10
95	35
96	13
97	42
98	168
99	26
100	10
109	24
111	26
112	80
113	27
115	11
116	13
117	21
123	14
125	13
126	31
127	14
129	32
137	10
140	17
141	13
154	21
155	13
158	54
159	12
168	13
169	10
171	53
182	13
183	10
185	16
196	10
213	22
162	29
236	12
237	13
238	119
239	999
240	177
241	24
255	11
256	21
269	11
280	26
281	12
283	10
294	10
299	12
311	49
312	47
313	539
314	116
315	16
331	19
339	18
354	228
355	159
356	32
367	124
368	32
381	10
409	17
423	49
424	27
437	13
438	10
451	15
465	17
466	10
479	14
496	10
497	10
508	30
509	14
522	13
523	13
538	52
539	21
550	50
551	425
552	941
553	335
554	71
555	13
570	10
593	21
594	10
596	10
611	21
612	10
788	4
806	3
807	2
