Mass spectrum: N-BUTYL BENZOATE; EI-MS
Formula: C11H14O2
Exact mass: 178.09938
Instrument type: EI-MS
m/z	relative intensity
50	60
51	140
56	260
77	420
79	50
105	999
106	80
122	200
123	870
124	40
178	40
