Mass spectrum: BIS(2-ETHOXYETHYL) ETHER; EI-MS
Name: DIETHYL CARBITOL
Formula: C8H18O3
Exact mass: 162.12559
Instrument type: EI-MS
m/z	relative intensity
27	96
28	58
29	202
31	284
41	15
43	104
44	81
45	999
46	23
58	12
59	441
60	16
72	452
73	425
74	20
89	23
90	15
100	11
102	56
116	29
