Mass spectrum: 2,4,6-TRI-TERT-BUTYL-1-TERT-BUTYLDIFLUOROSILYLBENZENE; EI-MS
Name: TERT-BUTYLDIFLUORO-2,4,6-TRI-TERT-BUTYLPHENYLSILANE
Formula: C22H38F2Si
Exact mass: 368.27108
Instrument type: EI-MS
m/z	relative intensity
43	18
44	13
55	27
57	999
58	45
77	14
81	56
91	19
105	10
115	10
117	12
128	12
129	13
131	15
143	11
159	10
173	11
189	10
215	11
231	35
241	17
297	721
298	177
299	46
311	11
312	82
313	19
353	14
368	11
