Mass spectrum: 2,4,6-TRI(ALPHA-METHYLBENZYL)PHENOL; EI-MS
Formula: C30H30O
Exact mass: 406.22967
Instrument type: EI-MS
m/z	relative intensity
44	106
77	101
91	119
105	54
149	106
235	117
287	96
301	16
302	90
313	174
391	914
392	26
406	999
407	295
