Mass spectrum: PARA-METHOXYBENZYL ACETATE; EI-MS
Name: ANISYL ACETATE
Formula: C10H12O3
Exact mass: 180.07864
Instrument type: EI-MS
m/z	relative intensity
14	10
15	65
27	16
28	10
29	12
38	17
39	65
40	12
41	19
43	260
50	38
51	90
52	52
53	16
55	10
62	12
63	49
64	37
65	45
66	24
76	14
77	187
78	121
79	23
89	58
90	66
91	169
92	58
94	38
105	56
106	27
107	34
109	82
119	37
120	421
121	999
122	95
135	36
136	11
137	70
138	185
139	17
180	431
181	49
