Mass spectrum: PROPANAL DIHEXYL ACETAL; EI-MS
Formula: C15H32O2
Exact mass: 244.24023
Instrument type: EI-MS
m/z	relative intensity
27	98
29	161
31	45
39	46
41	246
42	91
43	944
44	25
55	112
56	105
57	155
58	62
59	392
60	10
69	23
71	13
75	11
85	999
86	63
131	58
143	359
144	27
215	63
