Mass spectrum: BUTANEDIOIC ACID DIMETHYL ESTER; EI-MS
Name: DIMETHYL SUCCINATE
Formula: C6H10O4
Exact mass: 146.05791
Instrument type: EI-MS
m/z	relative intensity
15	174
26	15
27	71
28	93
29	32
31	13
41	25
42	22
43	15
45	48
55	464
56	38
57	35
59	352
87	169
114	260
115	999
116	48
