Mass spectrum: 2,2'-BIPYRROLIDINE; EI-MS
Formula: C8H16N2
Exact mass: 140.13135
Instrument type: EI-MS
m/z	relative intensity
70	999
