Mass spectrum: METHYL ISOTHIOCYANATE; EI-MS
Formula: C2H3NS
Exact mass: 72.99862
Instrument type: EI-MS
m/z	relative intensity
12	12
14	19
15	92
26	10
27	28
28	107
29	11
32	104
35	45
38	37
39	45
40	48
41	16
44	133
45	233
46	53
47	18
57	67
58	12
70	80
71	45
72	434
73	999
74	55
75	46
