Mass spectrum: BUTOXYCARBONYLMETHYL BUTYL PHTHALATE; EI-MS
Name: BUTYL PHTHALYL BUTYL GLYCOLATE
Formula: C18H24O6
Exact mass: 336.15729
Instrument type: EI-MS
m/z	relative intensity
54	36
55	103
56	165
65	53
76	81
77	103
93	34
104	9
105	46
121	33
132	21
133	9
149	999
150	107
163	42
177	2
205	90
207	39
223	87
263	24
264	35
278	33
281	29
336	23
