Mass spectrum: 2-HEXADECENOIC ACID METHYL ESTER; EI-MS
Formula: C17H32O2
Exact mass: 268.24023
Instrument type: EI-MS
m/z	relative intensity
41	142
53	101
54	103
55	58
56	180
57	393
59	163
67	21
68	202
69	336
70	125
71	17
74	371
81	322
82	166
83	29
84	289
85	203
87	999
95	20
96	265
97	267
98	229
100	15
101	166
109	114
110	128
111	13
113	363
127	90
141	117
152	9
194	98
236	98
237	103
