Mass spectrum: PARA-TERT-BUTYLBENZOIC ACID TRIMETHYLSILYLESTER; EI-MS
Name: TRIMETHYLSILYL 4-TERT-BUTYLBENZOATE
Formula: C14H22O2Si
Exact mass: 250.13891
Instrument type: EI-MS
m/z	relative intensity
45	99
57	34
73	350
74	2
75	71
77	91
91	74
96	26
103	17
105	17
110	42
115	4
117	42
118	99
145	37
146	5
161	299
162	34
191	290
192	6
193	79
207	56
235	999
236	19
237	51
250	48
