Mass spectrum: BENZOIC ACID ISOBUTYL ESTER; EI-MS
Name: ISOBUTYL BENZOATE
Formula: C11H14O2
Exact mass: 178.09938
Instrument type: EI-MS
m/z	relative intensity
29	14
41	29
56	278
57	20
77	163
78	14
79	25
105	999
106	83
122	28
123	689
124	55
135	8
178	2
