Mass spectrum: 2,4-DIMETHYL-3-TRIMETHYLSILOXY-2-PENTENE; EI-MS
Formula: C10H22OSi
Exact mass: 186.14399
Instrument type: EI-MS
m/z	relative intensity
41	97
43	58
45	117
47	31
55	42
59	45
64	35
73	999
74	88
75	501
76	36
77	27
78	42
79	30
81	305
91	38
95	39
99	36
129	81
130	29
143	156
158	36
171	366
172	56
186	380
187	64
