Mass spectrum: ISOCAPRONITRILE; EI-MS
Formula: C6H11N
Exact mass: 97.08915
Instrument type: EI-MS
m/z	relative intensity
13	15
14	20
15	126
26	8
27	382
28	113
29	209
37	3
38	39
39	293
40	59
41	52
42	70
43	453
44	15
50	2
51	34
52	33
53	50
55	999
56	54
57	270
58	11
69	2
81	13
82	131
96	95
