Mass spectrum: ORTHO-(PENTAMETHYLDISILANYL)BENZALDEHYDE; EI-MS
Formula: C12H20OSi2
Exact mass: 236.10527
Instrument type: EI-MS
m/z	relative intensity
43	20
53	26
61	17
73	343
74	42
77	19
89	38
91	21
93	20
103	26
105	22
107	34
117	24
119	42
121	23
146	17
148	87
161	15
163	999
164	203
179	32
193	276
194	83
195	37
219	19
221	206
222	47
223	19
236	20
