Mass spectrum: 5-METHYL-1,2,3,4-TETRAHYDRO(2-2H1)PYRIMIDO(1,6-A)INDOLE; EI-MS
Formula: C12H14N2
Exact mass: 186.1157
Instrument type: EI-MS
m/z	relative intensity
42	88
77	81
115	63
128	7
130	50
143	87
144	646
145	999
146	118
156	100
157	563
158	9
159	244
187	535
188	70
