Mass spectrum: P-HYDROXYBENZALDEHYDE; EI-MS
Formula: C7H6O2
Exact mass: 122.03678
Instrument type: EI-MS
m/z	relative intensity
17	61
18	26
29	73
37	33
38	91
39	328
40	35
42	30
43	34
44	14
50	76
51	58
53	68
55	20
61	29
62	75
63	120
64	40
65	350
66	78
69	23
74	16
93	335
94	48
121	999
122	813
123	65
