Mass spectrum: (Z)-2-BUTEN-1,4-DIOL; EI-MS
Formula: C4H8O2
Exact mass: 88.05243
Instrument type: EI-MS
m/z	relative intensity
15	30
19	23
26	90
27	353
28	150
29	466
30	41
31	285
37	79
38	126
39	999
40	203
41	723
42	818
43	293
44	182
45	82
47	71
49	21
50	79
51	75
52	35
53	147
54	196
55	109
56	36
57	347
58	94
68	53
69	137
70	187
71	68
