Mass spectrum: L-PHENYLALANINE METHYL ESTER; EI-MS
Formula: C10H13NO2
Exact mass: 179.09463
Instrument type: EI-MS
m/z	relative intensity
15	91
18	23
27	26
28	222
29	69
30	25
31	11
33	235
38	15
39	101
40	12
41	39
42	85
43	44
50	41
51	101
52	25
53	14
59	30
60	131
62	22
63	70
64	20
65	168
66	17
74	13
75	12
76	13
77	132
78	38
80	10
88	999
89	91
90	38
91	429
92	96
93	42
102	29
103	159
104	37
117	29
118	66
119	61
120	994
121	93
179	19
180	39
