Mass spectrum: (29H,31H-PHTHALOCYANINATO(2-)-N(29),N(30),N(31),N(32))ZINC; EI-MS
Name: PHTALOCYANINEZINC(2)
Formula: C32H16N8Zn
Exact mass: 576.07894
Instrument type: EI-MS
m/z	relative intensity
128	20
192	30
193	10
194	20
195	10
196	20
288	30
288.5	10
289	20
289.5	10
290	20
576	999
577	380
578	600
579	330
580	470
581	160
582	50
