Mass spectrum: (Z,Z)-3,6-DODECADIEN-1-OL; EI-MS
Formula: C12H22O
Exact mass: 182.16707
Instrument type: EI-MS
m/z	relative intensity
40	11
41	356
42	60
43	999
44	516
45	189
46	908
47	2
51	12
52	47
53	30
54	32
55	870
56	116
57	181
58	10
59	151
64	10
65	112
66	11
67	975
68	356
69	231
70	17
71	84
72	54
73	109
74	1
75	20
77	228
78	62
79	97
80	318
81	454
82	172
83	14
84	89
85	18
86	37
87	13
88	44
89	216
90	31
91	25
92	59
93	426
94	168
95	22
96	163
97	154
98	128
99	2
100	17
101	40
102	32
103	10
104	11
105	67
106	25
107	20
108	60
109	108
110	53
111	7
112	63
113	11
114	19
115	2
116	11
117	40
119	18
120	2
121	146
122	39
123	26
125	2
126	11
131	40
132	16
133	12
134	12
135	76
136	22
137	1
138	60
139	19
147	32
149	2
151	13
163	10
164	39
175	2
177	25
182	12
