Mass spectrum: BIS(2-CYANOETHYL)ETHER; EI-MS
Formula: C6H8N2O
Exact mass: 124.06366
Instrument type: EI-MS
m/z	relative intensity
15	46
26	53
27	128
28	242
29	69
31	213
40	42
41	51
42	51
52	53
54	999
55	64
84	252
97	35
