Mass spectrum: BETA-METHYL GAMMA-OCTALACTONE; EI-MS
Formula: C9H16O2
Exact mass: 156.11503
Instrument type: EI-MS
m/z	relative intensity
27	156
28	36
29	181
39	113
40	27
41	330
42	474
43	325
44	73
45	28
55	126
56	140
57	134
58	25
69	349
70	208
71	322
72	22
83	20
85	73
86	28
87	272
96	56
99	999
100	78
114	51
128	26
156	27
