Mass spectrum: 1,2,3,4-TETRAHYDRONAPHTHALENE; EI-MS
Formula: C10H12
Exact mass: 132.0939
Instrument type: EI-MS
m/z	relative intensity
27	32
39	62
41	19
50	28
51	87
52	21
53	25
57	18
575	28
58	11
63	51
64	56
645	12
65	77
76	16
77	81
78	117
79	20
89	26
91	473
92	38
102	28
103	88
104	999
105	96
115	119
116	54
117	147
127	38
128	78
129	59
130	19
131	129
132	503
133	56
