Mass spectrum: 3-CYANOPHENYL METHYL KETONE; EI-MS
Formula: C9H7NO
Exact mass: 145.05276
Instrument type: EI-MS
m/z	relative intensity
26	16
27	50
29	15
37	3
38	48
39	72
42	58
43	49
44	18
49	21
50	188
51	21
52	50
53	10
61	24
62	5
63	58
64	30
65	16
73	2
74	80
75	274
76	190
77	2
87	15
88	17
89	29
90	1
99	25
100	17
101	25
102	64
103	72
116	15
128	18
130	999
131	94
145	299
146	35
