Mass spectrum: 4-HYDROXY-3-(3-OXO-1-PHENYLBUTYL)-2H-CHROMEN-2-ONE; EI-MS
Name: 3-(1'-PHENYL-1'-ACETONYLMETHYL)-2-ONE-4-HYDROXY-BENZOPYRAN
Formula: C19H16O4
Exact mass: 308.10486
Instrument type: EI-MS
m/z	relative intensity
18	12
120	13
121	37
131	3
134	11
145	45
146	18
147	1
162	14
187	103
188	13
249	3
250	15
251	48
265	999
266	20
267	28
308	304
309	65
310	10
