Mass spectrum: (6S)-2,6-DIMETHYL-7-OCTENE-2,3-DIOL; EI-MS
Formula: C10H20O2
Exact mass: 172.14633
Instrument type: EI-MS
m/z	relative intensity
55	66
57	55
59	110
60	19
68	79
70	764
71	110
73	10
81	999
82	128
84	48
85	9
93	76
94	31
96	527
97	35
102	17
107	21
110	93
113	44
114	309
117	38
121	24
138	2
139	66
154	245
155	17
