Mass spectrum: 12-METHYLTRIDECANOIC ACID METHYL ESTER; EI-MS
Formula: C15H30O2
Exact mass: 242.22458
Instrument type: EI-MS
m/z	relative intensity
43	34
55	262
56	73
57	15
59	30
67	30
69	131
70	5
71	23
74	999
75	166
81	4
83	92
84	30
85	23
87	70
88	81
92	34
95	34
97	11
98	19
99	27
101	92
109	2
111	46
113	15
115	38
125	2
126	19
129	61
130	34
138	2
143	158
144	30
154	19
157	4
159	23
166	19
185	15
199	22
200	42
202	19
211	23
212	2
242	73
243	19
