Mass spectrum: TERT-BUTYL ACETATE; EI-MS
Formula: C6H12O2
Exact mass: 116.08373
Instrument type: EI-MS
m/z	relative intensity
29	111
31	12
41	238
43	999
44	23
55	19
56	673
57	734
58	31
59	427
60	14
61	39
101	280
102	17
