Mass spectrum: PHENANTHRENE; EI-MS
Formula: C14H10
Exact mass: 178.07825
Instrument type: EI-MS
m/z	relative intensity
43	133
75	134
76	522
88	250
89	378
176	192
177	114
178	999
179	133
