Mass spectrum: 5-OXOCAPROIC ACID METHYU ESTER; EI-MS
Name: 5-OXOHEXANOIC ACID METHYL ESTER
Formula: C7H12O3
Exact mass: 144.07864
Instrument type: EI-MS
m/z	relative intensity
38	17
39	29
41	179
42	33
43	999
44	89
55	641
56	2
57	21
58	128
59	474
60	3
69	64
70	47
71	376
72	1
74	700
75	38
83	12
84	29
85	401
86	17
87	192
97	6
101	209
102	59
103	12
112	91
113	547
114	34
129	141
144	72
