Mass spectrum: CITRIC ACID TRIBUTYL ESTER; EI-MS
Name: TRIBUTYL CITRATE
Formula: C18H32O7
Exact mass: 360.2148
Instrument type: EI-MS
m/z	relative intensity
57	47
87	14
102	19
111	33
129	453
130	28
133	13
139	11
147	65
157	32
158	28
185	999
186	102
187	13
203	31
213	11
259	362
260	55
287	8
360	3
