Mass spectrum: 1-BUTYL-2,2,6,6-TETRAMETHYL-2,6-DISILAPIPERIDINE; EI-MS
Formula: C11H27NSi2
Exact mass: 229.1682
Instrument type: EI-MS
m/z	relative intensity
59	102
73	56
88	23
186	999
187	203
188	87
214	92
229	50
