Mass spectrum: AMINOGLUTETHIMIDE; EI-MS
Formula: C13H16N2O2
Exact mass: 232.12118
Instrument type: EI-MS
m/z	relative intensity
39	60
40	33
41	59
42	3
43	31
44	39
45	9
50	2
51	40
52	31
53	30
54	4
55	48
56	27
57	34
58	0
63	31
64	19
65	78
66	4
67	31
68	13
69	25
70	0
71	27
72	1
73	9
74	1
75	19
76	20
77	79
78	4
79	29
80	19
81	19
82	3
83	20
84	9
88	23
89	0
90	20
91	59
92	29
93	7
94	57
95	19
101	10
102	0
103	39
104	38
105	28
106	1
107	23
108	9
114	9
115	1
116	36
117	99
118	109
119	4
120	27
121	14
122	2
127	2
128	18
129	19
130	110
131	7
132	367
133	64
134	17
142	1
143	23
144	30
145	39
146	7
147	73
148	31
149	19
150	0
151	3
158	38
159	26
160	10
161	37
162	19
172	30
173	0
174	17
175	325
176	51
177	3
186	9
187	69
188	23
203	999
204	169
205	26
231	2
232	7
233	114
234	19
