Mass spectrum: PHENANTHRENE; EI-MS
Formula: C14H10
Exact mass: 178.07825
Instrument type: EI-MS
m/z	relative intensity
63	27
74	13
75	36
76	127
77	13
87	19
88	101
89	133
90	19
119	28
126	11
150	35
151	63
152	59
174	16
175	23
176	155
177	99
178	999
179	160
180	12
