Mass spectrum: ISOBUTYL ORTHO TOLUATE; EI-MS
Name: ORTHO TOLUIC ACID ISOBUTYL ESTER
Formula: C12H16O2
Exact mass: 192.11503
Instrument type: EI-MS
m/z	relative intensity
27	67
29	157
39	165
41	255
43	25
50	12
51	36
55	12
56	74
57	283
63	57
65	284
77	24
89	70
90	121
91	633
92	53
93	20
118	631
119	999
120	82
136	429
137	177
138	10
192	48
193	5
