Mass spectrum: TRIMETHYL ORTHOFORMATE; EI-MS
Name: TRIMEOXYMETHANE
Formula: C4H10O3
Exact mass: 106.06299
Instrument type: EI-MS
m/z	relative intensity
43	12
45	22
47	219
60	15
75	999
76	36
105	26
