Mass spectrum: 1,2,3,4-TETRAHYDRO-TRANS-3-METHYL-1-NAPHTHYL ACETATE; EI-MS
Formula: C13H16O2
Exact mass: 204.11503
Instrument type: EI-MS
m/z	relative intensity
39	40
41	23
43	200
44	0
45	10
50	7
51	40
52	0
53	7
55	7
63	30
64	2
65	50
67	7
71	10
75	1
76	7
77	47
78	20
89	3
90	23
91	180
92	13
102	2
103	23
104	7
105	40
115	13
116	43
117	80
118	20
119	4
120	147
121	10
126	7
127	6
128	203
129	999
130	140
131	2
141	20
142	10
143	100
144	70
145	240
146	20
147	7
161	4
162	200
163	20
204	10
