Mass spectrum: 2-(TRIMETHYLSILYL)OXY-DODECANOIC ACID TRIMETHYLSILYL ESTER; EI-MS
Formula: C18H40O3Si2
Exact mass: 360.2516
Instrument type: EI-MS
m/z	relative intensity
43	133
45	140
47	159
55	18
57	121
59	152
67	146
69	24
70	146
71	114
73	999
75	25
77	222
81	146
82	140
83	38
91	146
95	159
97	375
103	34
111	191
115	146
129	133
147	41
148	146
221	140
243	611
244	15
282	38
