Mass spectrum: (1,1,1,2,3,3,3-2H7)ISOPROPYL BENZOATE; EI-MS
Name: ISOPROPYL BENZOATE (1,1,1,2,3,3,3-D7)
Formula: C10H12O2
Exact mass: 164.08373
Instrument type: EI-MS
m/z	relative intensity
18	19
30	51
42	17
46	82
48	19
50	161
51	140
66	200
76	19
77	315
78	32
79	18
81	13
105	999
106	131
107	38
122	34
123	209
124	19
125	264
126	19
152	14
153	20
171	110
172	11
