Mass spectrum: 2-(TRIMETHYLSILYL)OXYBUTANEDIOIC ACID BIS(TRIMETHYLSILYL) ESTER; EI-MS
Name: DI(TRIMETHYLSILYL) 2-TRIMETHYLSILOXYBUTANEDIOATE
Formula: C13H30O5Si3
Exact mass: 350.1401
Instrument type: EI-MS
m/z	relative intensity
43	37
44	39
45	123
47	8
49	48
55	134
59	65
72	3
73	999
74	90
75	174
77	34
78	35
93	73
95	31
101	8
117	48
131	42
133	121
147	49
148	105
149	79
175	69
189	8
190	58
191	37
217	56
233	14
234	23
245	77
247	37
307	2
335	25
