Mass spectrum: BUTYROPHENONE; EI-MS
Formula: C10H12O
Exact mass: 148.08882
Instrument type: EI-MS
m/z	relative intensity
27	62
39	48
41	39
43	22
50	58
51	185
52	12
55	14
65	10
74	14
75	10
76	18
77	489
78	50
91	14
105	999
106	77
120	80
133	11
148	163
149	16
