Mass spectrum: 1,1-DICHLORO-4-PHENYL-2-BUTANOL; EI-MS
Formula: C10H12Cl2O
Exact mass: 218.02652
Instrument type: EI-MS
m/z	relative intensity
49	12
65	72
68	14
83	22
85	19
89	13
91	999
92	224
104	177
105	20
117	266
118	34
125	102
129	56
135	35
143	17
146	41
147	62
174	27
182	83
183	17
184	32
218	61
219	12
220	43
222	12
