Mass spectrum: N-ACETYLGLYCYLGLYCYLMETHIONYLGLYCINE ETHYLESTER; EI-MS
Formula: C15H26N4O6S
Exact mass: 390.15731
Instrument type: EI-MS
m/z	relative intensity
18	31
28	33
30	75
43	3
47	23
48	31
55	17
56	4
61	28
64	14
72	25
73	3
99	12
100	164
101	11
104	46
105	26
106	9
112	14
114	4
126	10
128	11
129	31
130	1
157	32
158	15
160	46
161	3
171	31
173	17
186	12
195	2
199	12
212	21
213	261
214	3
217	30
226	77
227	15
243	2
244	21
260	14
270	14
287	4
288	32
298	82
299	12
312	4
316	999
317	168
318	31
325	1
330	22
346	21
372	11
390	29
