Mass spectrum: TRIACONTANE; EI-MS
Formula: C30H62
Exact mass: 422.48515
Instrument type: EI-MS
m/z	relative intensity
41	295
42	124
43	964
44	43
53	26
54	49
55	425
56	222
57	999
58	72
59	23
60	12
67	48
68	34
69	214
70	142
71	934
72	48
78	12
79	23
81	14
82	62
83	174
84	84
85	590
86	49
95	17
96	59
97	195
98	71
99	186
103	30
111	81
112	60
113	121
114	11
115	20
125	22
126	26
127	79
132	13
135	12
139	10
140	49
141	76
142	14
147	17
154	23
155	40
161	11
163	15
168	27
169	38
177	19
182	14
183	47
193	16
194	11
196	18
197	35
207	95
208	51
211	24
221	11
224	14
225	25
239	14
266	11
281	76
282	11
309	12
365	10
422	13
