Mass spectrum: 1-BUTYLAMINE; EI-MS
Formula: C4H11N
Exact mass: 73.08915
Instrument type: EI-MS
m/z	relative intensity
15	13
18	33
27	54
28	7
29	21
30	999
31	19
39	3
41	30
42	22
43	12
44	2
56	10
73	78
