Mass spectrum: 2-METHYL-3,4-EPOXY-1-BUTENE; EI-MS
Name: 2-ISOPROPENYLOXIRANE
Formula: C5H8O
Exact mass: 84.05751
Instrument type: EI-MS
m/z	relative intensity
26	58
27	200
28	95
29	16
30	34
37	83
38	175
39	999
40	81
41	300
42	47
43	5
49	43
50	211
51	196
52	11
53	526
54	134
55	509
56	43
57	36
67	21
68	21
69	23
83	357
84	105
