Mass spectrum: DL-LEUCYL-DL-LEUCINE; EI-MS
Formula: C12H24N2O3
Exact mass: 244.17869
Instrument type: EI-MS
m/z	relative intensity
30	70
41	26
43	56
44	84
70	16
86	704
87	43
140	21
141	11
17	12
183	10
245	999
246	142
247	15
313	17
