Mass spectrum: 2,5-PIPERAZINEDIONE; EI-MS
Name: CYCLOGLYCYLGLYCINE
Formula: C4H6N2O2
Exact mass: 114.04293
Instrument type: EI-MS
m/z	relative intensity
29	30
30	442
31	12
42	5
43	452
44	14
57	12
58	4
71	747
72	34
85	12
86	13
114	999
115	64
