Mass spectrum: 3-(4-METHOXYPHENYL)BENZO(F)QUINAZOLINE; EI-MS
Formula: C19H14N2O
Exact mass: 286.11061
Instrument type: EI-MS
m/z	relative intensity
75	10
99	10
107.5	12
108	1
121	16
121.5	47
122	12
125	1
126	160
127	22
127.5	11
143	7
144	16
152	18
216	17
242	5
243	50
244	15
257	21
259	2
271	94
272	27
285	63
286	999
287	200
288	22
