Mass spectrum: TRIPHENYLTIN CHLORIDE; EI-MS
Formula: C18H15ClSn
Exact mass: 385.98842
Instrument type: EI-MS
m/z	relative intensity
51	934
52	62
63	13
74	43
75	40
76	60
77	600
78	57
115	14
116	57
117	39
118	98
119	45
120	130
122	18
124	22
143	17
145	21
147	12
149	15
150	18
151	162
152	164
153	373
154	999
155	509
156	48
157	145
159	61
161	14
193	80
194	57
195	134
196	69
197	167
198	15
199	24
201	28
228	12
229	13
230	31
231	62
232	32
301	11
303	12
304	51
305	179
306	192
307	343
308	291
309	398
310	135
311	149
312	46
313	65
314	16
315	18
346	12
347	25
348	32
349	37
350	41
351	32
382	14
383	21
384	24
385	30
386	25
387	14
