Mass spectrum: CHLOROTRIETHYLSILANE; EI-MS
Formula: C6H15ClSi
Exact mass: 150.06315
Instrument type: EI-MS
m/z	relative intensity
43	17
57	16
58	19
59	15
63	86
64	14
65	143
66	12
67	44
79	20
86	20
87	27
91	27
92	48
93	710
94	69
95	264
96	19
114	22
115	43
121	999
122	99
123	368
124	34
125	13
150	116
151	15
152	45
