Mass spectrum: METHYL 9,10-BIS(TRIMETHYLSILOXY)OCTADEC-12(Z)-ENOATE; EI-MS
Formula: C25H52O4Si2
Exact mass: 472.34041
Instrument type: EI-MS
m/z	relative intensity
670	62
690	40
730	380
750	78
810	62
930	27
950	23
1010	23
1030	151
1040	19
1050	18
1070	31
1090	93
1100	18
1210	32
1230	35
1250	41
1290	165
1300	35
1310	18
1330	40
1370	30
1390	22
1430	43
1460	34
1470	194
1480	35
1490	44
1550	260
1560	29
1590	59
1670	34
1730	52
1770	22
1910	20
2110	22
2120	127
2130	561
2140	118
2150	32
2250	28
2270	22
2430	82
2570	35
2580	32
2590	999
2600	205
2610	72
2700	33
2710	555
2720	113
2730	38
2750	74
2930	27
2990	68
3320	65
3330	32
3610	429
3620	113
3630	49
3820	32
4410	35
4420	18
4570	26
