Mass spectrum: ISOBUTYL ACETATE; EI-MS
Formula: C6H12O2
Exact mass: 116.08373
Instrument type: EI-MS
m/z	relative intensity
15	33
27	48
29	40
39	53
40	10
41	116
42	32
43	999
44	25
55	23
56	324
57	41
61	31
71	34
73	196
74	17
86	23
