Mass spectrum: METHACRYLIC ACID DIETHYLENEGLYCOL ESTER; EI-MS
Name: 2-(2-HYDROXYETHOXY)ETHYL METHACRYLATE
Formula: C8H14O4
Exact mass: 174.08921
Instrument type: EI-MS
m/z	relative intensity
27	52
29	36
31	55
39	11
40	21
41	584
42	44
43	5
44	344
45	675
55	43
57	2
58	38
68	38
69	999
70	8
71	25
73	26
75	77
85	3
86	61
87	48
88	113
99	5
100	90
101	282
112	47
113	37
114	38
