Mass spectrum: 5,7-DIMETHYLFLAVANONE; EI-MS
Name: 5,7-DIMETHYL-2-PHENYLCHROMAN-4-ONE
Formula: C17H16O2
Exact mass: 252.11503
Instrument type: EI-MS
m/z	relative intensity
28	51
39	67
51	103
52	3
53	21
63	29
65	81
77	16
78	73
91	425
92	92
103	10
104	100
105	43
119	96
120	37
121	22
148	999
149	214
161	30
175	147
234	53
251	94
252	70
253	119
