Mass spectrum: TETRAHYDROFURFURYL ALCOHOL; EI-MS
Formula: C5H10O2
Exact mass: 102.06808
Instrument type: EI-MS
m/z	relative intensity
15	40
26	24
27	287
28	3
29	147
31	214
38	16
39	14
40	30
41	414
42	129
43	72
44	82
45	13
53	18
55	2
57	39
61	19
70	49
71	999
72	43
