Mass spectrum: DIMETHYL GLUTARATE; EI-MS
Formula: C7H12O4
Exact mass: 160.07356
Instrument type: EI-MS
m/z	relative intensity
15	34
41	109
42	60
43	117
45	16
55	263
56	23
58	68
59	598
60	21
68	21
69	35
70	21
71	10
72	51
74	117
85	57
87	273
88	18
97	96
98	13
99	13
100	999
101	602
102	34
128	569
129	897
130	63
131	7
