Mass spectrum: 4-METHOXYPYRIDINE-N-OXIDE; EI-MS
Formula: C6H7NO2
Exact mass: 125.04768
Instrument type: EI-MS
m/z	relative intensity
17	62
26	98
27	112
28	226
29	84
30	112
37	27
38	77
39	187
40	61
41	35
50	81
51	107
52	118
53	76
54	77
55	58
56	47
63	62
64	25
65	20
66	44
67	20
68	59
69	45
78	25
79	76
82	89
83	32
84	44
108	27
109	141
110	367
125	999
126	71
