Mass spectrum: 1,1-DIALLYLHYDRAZINE; EI-MS
Formula: C6H12N2
Exact mass: 112.10005
Instrument type: EI-MS
m/z	relative intensity
27	310
29	164
30	76
31	13
38	25
39	293
40	36
41	999
42	107
43	167
44	215
45	7
54	67
55	41
56	74
57	2
67	10
68	18
69	23
70	2
71	479
72	69
85	54
112	20
113	18
