Mass spectrum: PARA-CRESYL PHENYLACETATE; EI-MS
Name: PHENYLACETIC ACID PARA-CRESYL ESTER
Formula: C15H14O2
Exact mass: 226.09938
Instrument type: EI-MS
m/z	relative intensity
27	26
28	19
39	76
41	21
50	22
51	57
52	31
53	27
63	48
64	15
65	147
77	92
78	35
79	36
89	51
90	95
91	848
92	62
107	69
108	279
109	22
118	999
119	80
226	23
