Mass spectrum: ISOVALERALDEHYDE; EI-MS
Formula: C5H10O
Exact mass: 86.07316
Instrument type: EI-MS
m/z	relative intensity
27	117
28	14
29	206
39	2
41	460
42	110
43	572
44	999
45	137
53	14
55	18
56	2
57	195
58	510
59	21
60	5
68	14
69	11
71	178
72	1
85	18
86	71
87	11
