Mass spectrum: 3-(TETRAHYDRO-2-PYRANYL)-5-FLUOROURACIL; EI-MS
Formula: C9H11FN2O3
Exact mass: 214.07537
Instrument type: EI-MS
m/z	relative intensity
41	250
42	50
43	130
44	1
53	60
54	70
55	240
56	1
57	160
58	130
59	60
60	1
62	60
67	170
69	80
82	1
83	140
84	40
85	730
86	2
87	300
88	180
100	30
101	3
102	140
103	60
114	390
115	1
126	140
128	80
130	500
131	999
132	140
156	60
157	70
158	0
159	40
169	50
175	40
176	1
214	490
215	110
