Mass spectrum: 2-ACETYLTHIAZOLE; EI-MS
Formula: C5H5NOS
Exact mass: 127.00918
Instrument type: EI-MS
m/z	relative intensity
42	20
43	999
44	29
57	109
58	320
59	56
83	10
84	61
85	127
99	484
100	32
101	21
112	243
113	10
114	10
127	366
128	20
129	11
