Mass spectrum: BENZENETHIOL; EI-MS
Name: THIOPHENOL
Formula: C6H6S
Exact mass: 110.01902
Instrument type: EI-MS
m/z	relative intensity
37	18
38	26
39	97
45	62
50	63
51	98
55	28
57	18
58	30
63	26
65	106
66	339
69	76
77	116
84	146
108	25
109	221
110	999
111	83
112	46
