Mass spectrum: N-ACETYLASPARTIC ACID DIETHYL ESTER; EI-MS
Formula: C10H17NO5
Exact mass: 231.11067
Instrument type: EI-MS
m/z	relative intensity
116	798
117	35
157	13
158	999
159	65
185	11
186	69
188	2
231	19
