Mass spectrum: PROPYLHYDRAZINE; EI-MS
Formula: C3H10N2
Exact mass: 74.0844
Instrument type: EI-MS
m/z	relative intensity
29	108
30	77
31	145
32	3
39	72
40	17
41	145
42	6
43	113
44	34
45	999
46	3
56	29
57	13
58	6
59	2
73	16
74	264
75	46
