Mass spectrum: CHLOROETHANE; EI-MS
Formula: C2H5Cl
Exact mass: 64.00798
Instrument type: EI-MS
m/z	relative intensity
25	76
26	398
27	827
28	85
29	781
35	76
36	44
37	3
47	43
48	41
49	270
51	9
60	38
61	40
62	37
63	6
64	999
65	42
66	350
