Mass spectrum: 2-AMINOPYRIDINE; EI-MS
Formula: C5H6N2
Exact mass: 94.0531
Instrument type: EI-MS
m/z	relative intensity
38	60
39	120
40	90
41	170
51	80
66	130
67	610
68	50
93	60
94	999
95	90
