Mass spectrum: DIISOPROPYL ETHER; EI-MS
Name: BIS(1-METHYLETHYL)ETHER
Formula: C6H14O
Exact mass: 102.10447
Instrument type: EI-MS
m/z	relative intensity
15	21
27	63
28	11
31	25
39	43
41	108
42	27
43	419
44	21
45	999
46	21
59	109
69	27
87	234
88	13
102	16
