Mass spectrum: CYCLOPENTENE; EI-MS
Formula: C5H8
Exact mass: 68.0626
Instrument type: EI-MS
m/z	relative intensity
26	13
27	71
28	27
31	13
37	17
38	40
39	222
40	125
41	151
42	75
43	33
50	14
51	19
53	196
57	15
62	13
63	19
65	57
66	45
67	999
68	431
69	23
