Mass spectrum: 3,3A,8A-TRIMETHYL-2,3,3A,8A-TETRAHYDROPYRROLO(2,3-B)INDOLE; EI-MS
Formula: C13H18N2
Exact mass: 202.147
Instrument type: EI-MS
m/z	relative intensity
27	34
28	47
29	21
30	2
39	50
40	11
41	33
42	8
43	34
44	12
50	13
51	5
52	21
53	21
54	17
55	2
56	64
57	15
63	34
64	2
65	42
66	11
75	20
76	2
77	118
78	38
78.5	29
79	3
80	25
82	12
86	15
87	2
89	36
90	26
91	86
92	2
93	23
93.5	16
94	15
96	3
101	25
102	43
103	48
104	2
105	15
106	32
107	18
115	13
116	52
117	77
120	13
127	3
128	58
129	45
130	123
131	6
132	41
133	13
140	11
141	1
142	45
143	121
144	342
145	11
146	85
147	13
154	18
155	2
156	52
157	94
158	999
159	67
160	139
161	21
168	11
169	1
170	34
171	44
172	450
173	8
174	21
184	17
185	23
186	2
187	151
188	31
189	31
200	1
201	23
202	356
203	115
204	13
