Mass spectrum: BARBITURIC ACID; EI-MS
Name: 2,4,6(1H,3H,5H)-PYRIMIDINETRIONE
Formula: C4H4N2O3
Exact mass: 128.02219
Instrument type: EI-MS
m/z	relative intensity
28	17
42	999
43	50
44	42
60	12
69	34
85	259
100	57
128	838
129	48
