Mass spectrum: 2-METHYL-3-TRIMETHYLSILOXY-2-OCTENE; EI-MS
Formula: C12H26OSi
Exact mass: 214.17529
Instrument type: EI-MS
m/z	relative intensity
42	183
43	114
45	128
55	47
59	51
67	95
69	64
71	55
73	999
74	86
75	627
76	46
81	65
91	76
99	49
130	80
143	729
144	106
157	48
158	926
159	147
160	44
171	460
172	82
199	107
214	229
215	45
