Mass spectrum: 4-METHOXY-2,6-DIMETHYLPYRIMIDINE; EI-MS
Formula: C7H10N2O
Exact mass: 138.07931
Instrument type: EI-MS
m/z	relative intensity
39	550
67	999
108	400
109	35
137	540
138	680
