Mass spectrum: DICYCLOHEXYLAMINE; EI-MS
Formula: C12H23N
Exact mass: 181.18305
Instrument type: EI-MS
m/z	relative intensity
28	180
41	240
44	140
55	25
56	750
138	999
139	160
181	180
