Mass spectrum: NORBORNYLENE; EI-MS
Name: BICYCLO(2.2.1)HEPT-2-ENE
Formula: C7H10
Exact mass: 94.07825
Instrument type: EI-MS
m/z	relative intensity
26	13
27	68
37	11
38	24
39	150
40	59
41	44
50	21
51	40
52	19
53	33
62	12
63	22
65	67
66	999
67	72
77	76
78	18
79	122
80	11
91	40
93	21
94	154
95	15
