Mass spectrum: DIETHYL MALEATE; EI-MS
Formula: C8H12O4
Exact mass: 172.07356
Instrument type: EI-MS
m/z	relative intensity
69	25
71	166
72	80
73	2
81	45
82	272
83	31
98	6
99	999
100	335
101	31
117	3
118	20
125	43
126	445
127	96
128	246
129	30
143	90
145	35
