Mass spectrum: 3,6-DIMETHYLQUINOLINE; EI-MS
Formula: C11H11N
Exact mass: 157.08915
Instrument type: EI-MS
m/z	relative intensity
27	10
38	40
39	116
50	84
51	188
63	142
65	116
77	92
89	84
102	29
103	28
115	216
116	84
127	52
128	84
141	61
142	172
156	652
157	999
158	84
