Mass spectrum: ETHYLHYDRAZONE PROPIONALDEHYDE; EI-MS
Name: PROPIONALDEHYDE ETHYLHYDRAZONE
Formula: C5H12N2
Exact mass: 100.10005
Instrument type: EI-MS
m/z	relative intensity
29	450
30	999
39	120
40	5
41	230
42	230
43	150
44	10
45	80
46	22
54	54
55	3
56	330
57	70
58	80
59	2
69	30
70	17
71	135
72	2
73	20
83	70
85	900
86	6
99	46
100	700
101	95
