Mass spectrum: 2,3,5-TRIMETHYLPYRIDINE; EI-MS
Formula: C8H11N
Exact mass: 121.08915
Instrument type: EI-MS
m/z	relative intensity
27	199
28	137
39	299
41	84
42	21
51	152
52	30
53	118
63	57
65	62
77	172
78	42
79	290
91	53
93	63
104	14
105	54
106	264
120	472
121	999
122	91
