Mass spectrum: ISOPROPYL CHLORIDE; EI-MS
Formula: C3H7Cl
Exact mass: 78.02363
Instrument type: EI-MS
m/z	relative intensity
15	17
26	30
27	334
28	15
37	21
38	31
39	102
40	18
41	215
42	57
43	999
44	32
62	20
63	209
65	67
78	203
80	64
