Mass spectrum: (4R)-2-OXO-1,3-THIAZOLIDINE-4-CARBOXYLIC ACID; EI-MS
Formula: C4H5NO3S
Exact mass: 146.99901
Instrument type: EI-MS
m/z	relative intensity
43	32
46	28
55	25
57	2
60	40
72	46
73	85
74	6
75	27
84	25
86	48
87	6
101	139
102	999
103	247
104	14
110	17
113	20
145	19
147	60
148	80
149	74
