Mass spectrum: METHYLACRYLATE; EI-MS
Formula: C4H6O2
Exact mass: 86.03678
Instrument type: EI-MS
m/z	relative intensity
42	70
43	165
44	22
45	215
53	15
54	10
55	999
56	41
57	18
58	139
59	323
60	13
68	17
73	20
74	182
85	136
86	24
