Mass spectrum: DIFURFURYL SULFIDE; EI-MS
Formula: C10H10O2S
Exact mass: 194.04015
Instrument type: EI-MS
m/z	relative intensity
26	12
27	134
29	18
38	14
39	57
41	19
45	144
50	34
51	67
52	45
53	263
54	11
58	16
59	17
69	17
81	999
82	91
85	65
112	17
113	135
126	56
194	122
195	12
