Mass spectrum: DIPHENYLACETIC ACID TRIMETHYLSILYL ESTER; EI-MS
Formula: C17H20O2Si
Exact mass: 284.12326
Instrument type: EI-MS
m/z	relative intensity
43	21
44	213
45	124
47	3
51	56
73	999
74	82
75	22
76	32
77	150
78	23
105	19
152	44
165	82
166	30
167	6
182	75
240	72
269	30
