Mass spectrum: PROPYL ACETATE; EI-MS
Formula: C5H10O2
Exact mass: 102.06808
Instrument type: EI-MS
m/z	relative intensity
14	2
15	9
26	1
27	9
28	2
29	2
31	4
39	4
41	8
42	7
43	999
44	2
57	1
59	4
61	25
72	1
73	11
102	1
