Mass spectrum: 2-VINYLPYRIDINE; EI-MS
Name: 2-ETHENYLPYRIDINE
Formula: C7H7N
Exact mass: 105.05785
Instrument type: EI-MS
m/z	relative intensity
26	170
27	213
28	11
38	100
39	140
40	11
41	21
50	25
51	469
52	423
53	39
63	43
64	10
65	78
74	43
75	41
76	10
77	11
78	207
79	931
80	35
103	20
104	551
105	999
106	73
