Mass spectrum: 4-(1-PYRROLIDINYL)-2(5H)-FURANONE; EI-MS
Formula: C8H11NO2
Exact mass: 153.07898
Instrument type: EI-MS
m/z	relative intensity
41	8
42	9
43	12
44	2
54	10
55	14
56	10
57	5
67	20
68	37
69	33
70	58
71	6
79	5
80	5
81	13
82	13
83	18
84	13
85	3
94	51
95	173
96	105
97	52
98	6
106	9
107	3
108	61
109	39
110	20
111	6
112	3
113	2
118	2
122	7
123	5
124	82
125	88
126	9
127	2
136	5
137	2
138	4
139	2
149	3
151	4
152	179
153	999
154	108
155	11
