Mass spectrum: 1,4-BENZOQUINONE; EI-MS
Name: 2,5-CYCLOHEXADIENE-1,4-DIONE
Formula: C6H4O2
Exact mass: 108.02113
Instrument type: EI-MS
m/z	relative intensity
49	22
50	49
51	39
52	163
53	143
54	698
55	32
61	20
62	17
63	10
80	276
81	19
82	337
83	16
108	999
109	69
110	18
