Mass spectrum: UNDECANOIC ACID; EI-MS
Formula: C11H22O2
Exact mass: 186.16198
Instrument type: EI-MS
m/z	relative intensity
15	11
26	12
27	332
28	44
29	463
30	10
31	21
39	204
40	26
41	769
42	165
43	700
44	15
45	129
53	35
54	33
55	481
56	117
57	354
58	13
59	33
60	999
61	157
67	31
68	23
69	208
70	68
71	289
72	14
73	900
74	74
81	17
82	23
83	103
84	76
85	160
86	10
87	134
88	14
96	11
97	66
98	38
101	57
111	11
115	66
124	22
126	29
127	13
129	153
130	12
143	122
157	20
186	60
