Mass spectrum: 3,7-DIMETHYL-2,6-OCTADIENYL ACETATE; EI-MS
Formula: C12H20O2
Exact mass: 196.14633
Instrument type: EI-MS
m/z	relative intensity
16	55
27	20
37	130
39	30
64	40
65	480
66	999
67	7
77	15
78	190
80	40
81	2
83	35
84	75
85	10
92	8
93	320
94	65
95	20
101	2
107	60
109	20
110	10
119	18
120	10
121	20
125	35
133	32
135	40
136	10
155	40
