Mass spectrum: 5-BUTYL-2-CARBOXYPYRIDINE 1-OXIDE; EI-MS
Formula: C10H13NO3
Exact mass: 195.08954
Instrument type: EI-MS
m/z	relative intensity
50	11
51	15
52	20
64	1
65	45
66	10
77	48
78	3
79	50
80	22
81	15
91	10
92	260
93	61
104	32
105	3
106	40
107	10
108	65
109	17
110	15
115	10
116	10
117	2
118	35
119	68
120	10
122	2
123	15
132	25
133	25
134	999
135	584
136	60
150	30
151	78
152	60
179	18
194	20
195	28
196	30
