Mass spectrum: HEXYL 2-FUROATE; EI-MS
Formula: C11H16O3
Exact mass: 196.10994
Instrument type: EI-MS
m/z	relative intensity
27	99
29	90
37	12
38	52
39	285
41	202
42	126
43	187
53	19
54	14
55	198
56	229
57	20
66	13
67	36
68	44
69	94
83	18
84	88
95	999
96	73
97	12
112	640
113	966
114	59
196	100
197	12
