Mass spectrum: 3,4-DIMETHYLPYRIDINE; EI-MS
Formula: C7H9N
Exact mass: 107.0735
Instrument type: EI-MS
m/z	relative intensity
26	58
27	188
28	97
29	3
37	40
38	92
39	338
40	6
41	65
42	29
49	30
50	11
51	179
52	126
53	110
54	5
61	27
62	28
63	70
64	3
65	115
66	60
67	38
68	2
75	20
77	135
78	70
79	38
80	88
81	21
91	32
92	23
93	49
104	33
105	61
106	47
107	999
108	70
