Mass spectrum: 1,4-DIBENZYL-3,5-DIMETHYLPYRAZOLE; EI-MS
Formula: C19H20N2
Exact mass: 276.16265
Instrument type: EI-MS
m/z	relative intensity
26	11
27	34
28	41
39	8
40	23
41	45
42	66
43	1
50	15
51	54
52	21
53	2
56	25
63	34
64	12
65	20
66	29
76	14
77	69
78	2
89	44
90	26
91	999
92	10
99	25
102	24
103	38
104	2
105	13
108	12
109	89
115	6
116	22
117	23
118	12
123	6
127	20
128	106
129	31
130	2
136	23
137	12
138	27
142	3
143	24
144	41
145	13
151	1
152	13
155	10
156	14
157	1
158	15
165	12
167	12
168	1
169	20
170	13
171	57
172	2
178	12
179	12
180	12
182	2
183	34
184	45
185	330
186	10
187	12
197	17
199	276
200	7
201	17
261	327
262	71
275	31
276	500
277	109
