Mass spectrum: 9,9-DIMETHYL-9-SILAFLUORENE; EI-MS
Formula: C14H14Si
Exact mass: 210.08648
Instrument type: EI-MS
m/z	relative intensity
43	23
53	47
77	20
78	10
91	14
97	189
98	38
103	15
104	43
105	42
115	11
129	11
152	11
153	25
154	18
155	10
165	201
166	38
167	38
169	13
179	39
180	45
181	26
191	17
192	12
193	70
194	23
195	999
196	196
197	60
210	451
211	86
212	22
