Mass spectrum: 6-METHYL-4-OXO-6,7,8,9-TETRAHYDRO-4H-PYRIDO(1,2-A)PYRIMIDINE-3-ACETIC ACID; EI-MS
Formula: C11H14N2O3
Exact mass: 222.10044
Instrument type: EI-MS
m/z	relative intensity
39	233
41	217
42	60
44	4
53	73
54	110
55	300
67	6
69	53
79	47
80	50
82	13
94	37
95	40
96	60
108	3
122	140
123	333
124	400
133	4
135	167
136	77
137	37
147	5
148	40
149	100
150	83
161	7
162	20
163	283
164	32
175	9
176	167
177	483
178	999
179	12
180	12
189	12
204	23
205	1
221	10
222	30
223	5
