Mass spectrum: 2-(3-HYDROXYBUTOXY)-N-(2-(DIMETHYLAMINO)ETHYL)-4-QUINOLINECARBOXAMIDE; EI-MS
Formula: C18H25N3O3
Exact mass: 331.18959
Instrument type: EI-MS
m/z	relative intensity
54	1
55	2
56	5
58	999
85	4
144	1
145	2
172	1
215	3
301	1
316	1
328	1
