Mass spectrum: 2,4,5-TRIMETHYLTHIAZOLE; EI-MS
Formula: C6H9NS
Exact mass: 127.04557
Instrument type: EI-MS
m/z	relative intensity
27	20
41	23
53	184
54	10
58	65
59	259
60	20
61	10
71	999
72	99
73	99
84	10
85	456
86	987
87	143
88	113
112	19
126	74
127	885
128	238
129	148
