Mass spectrum: 2-METHYL-5-PHENYLPYRIDINE; EI-MS
Formula: C12H11N
Exact mass: 169.08915
Instrument type: EI-MS
m/z	relative intensity
51	57
53	57
77	60
102	8
115	119
141	191
155	17
167	9
168	169
169	999
170	136
