Mass spectrum: 2-(4-AZIDO-1-OXOBUTYL)-N-CARBOBENZOXYPYRROLIDINE; EI-MS
Formula: C16H20N4O3
Exact mass: 316.15354
Instrument type: EI-MS
m/z	relative intensity
91	999
92	10
160	840
1610	27
204	670
205	21
316	1
