Mass spectrum: NORISOHALFORDIN; EI-MS
Formula: C13H10O6
Exact mass: 262.04774
Instrument type: EI-MS
m/z	relative intensity
163	30
176	90
191	530
219	150
234	40
244	20
247	50
262	999
