Mass spectrum: 5-TERT-BUTYL-1,2,3,4-TETRAHYDROPYRIMIDINE-2,4-DIONE; EI-MS
Name: 5-TERT-BUTYLURACIL
Formula: C8H12N2O2
Exact mass: 168.08988
Instrument type: EI-MS
m/z	relative intensity
38	14
39	121
40	16
41	12
42	104
43	32
44	29
50	1
51	24
52	13
53	55
54	2
55	93
56	14
57	36
65	3
66	25
67	63
68	221
69	4
70	26
71	13
76	16
76.5	3
77	11
79	11
80	59
81	4
82	154
83	39
92	125
96	1
97	10
110	580
111	48
125	11
126	227
127	15
149	11
151	1
153	999
154	93
167	13
168	31
169	32
