Mass spectrum: CEDRYL ACETATE; EI-MS
Formula: C17H28O2
Exact mass: 264.20893
Instrument type: EI-MS
m/z	relative intensity
15	23
27	35
29	60
39	51
40	13
41	346
42	29
43	925
44	18
45	12
51	12
53	71
54	10
55	207
56	32
57	34
59	24
61	16
65	36
66	13
67	151
68	26
69	260
70	22
71	51
72	14
77	90
78	24
79	171
80	33
81	215
82	66
83	46
84	14
91	173
92	57
93	289
94	91
95	301
96	55
97	30
99	27
101	11
103	11
105	246
106	67
107	235
108	84
109	167
110	26
111	20
115	11
117	17
118	13
119	528
120	115
121	269
122	108
123	49
124	11
131	15
133	143
134	89
135	136
136	49
137	25
138	11
145	12
146	15
147	181
148	137
149	131
150	43
151	85
152	15
161	328
162	151
163	40
175	432
176	154
177	23
189	179
190	25
204	999
205	189
206	17
207	50
222	16
