Mass spectrum: 3,6-DIACETYL-9-ETHYLCARBAZOLE; EI-MS
Formula: C18H17NO2
Exact mass: 279.12593
Instrument type: EI-MS
m/z	relative intensity
39	21
41	51
42	21
43	5
44	52
45	21
53	11
54	2
55	52
56	31
57	51
60	3
67	34
68	26
69	52
70	3
71	40
73	33
77	10
79	2
81	50
82	26
83	44
84	3
85	28
91	13
93	13
94	1
95	35
96	21
97	37
98	4
99	11
105	10
107	12
109	2
110	12
111	24
113	11
121	1
123	17
124	10
125	20
129	2
135	11
136	11
137	23
138	1
139	10
149	22
150	11
151	2
152	15
163	10
164	32
165	2
166	10
177	16
178	37
179	2
180	11
190	11
191	21
192	3
193	26
194	15
206	10
207	1
220	27
221	147
222	42
236	3
237	13
239	10
249	13
250	3
251	11
262	13
263	19
264	999
265	327
266	18
279	577
280	196
