Mass spectrum: P-CRESOL; EI-MS
Name: 4-METHYLPHENOL
Formula: C7H8O
Exact mass: 108.05751
Instrument type: EI-MS
m/z	relative intensity
43	12
50	53
51	96
52	54
53	84
54	52
55	29
62	17
63	38
65	19
66	11
77	191
78	62
79	156
80	59
81	13
89	19
90	86
91	41
106	41
107	999
108	976
109	78
