Mass spectrum: DL-2,3-BIS(TRIMETHYLSILYL)OXY-PROPIONIC ACID TRIMETHYLSILYL ESTER; EI-MS
Name: TRIMETHYLSILYL DL-2,3-BIS(TRIMETHYLSILOXY)PROPIONATE
Formula: C12H30O4Si3
Exact mass: 322.14519
Instrument type: EI-MS
m/z	relative intensity
45	222
58	68
70	60
73	58
74	70
75	121
77	88
102	16
103	191
116	60
117	131
130	9
131	63
133	202
147	999
148	15
149	106
175	60
189	871
190	19
191	111
205	376
206	68
217	8
292	992
293	277
294	138
307	23
308	60
