Mass spectrum: ISOPROPYL BUTYRATE; EI-MS
Name: 1-METHYLETHYL BUTYRATE
Formula: C7H14O2
Exact mass: 130.09938
Instrument type: EI-MS
m/z	relative intensity
15	28
26	15
27	211
28	24
29	37
39	118
40	15
41	249
42	118
43	999
44	37
45	33
55	12
59	117
60	119
71	624
72	30
73	57
88	99
89	233
102	18
115	41
