Mass spectrum: HEXYL ACETATE; EI-MS
Formula: C8H16O2
Exact mass: 144.11503
Instrument type: EI-MS
m/z	relative intensity
15	66
27	100
28	31
29	95
31	15
39	67
40	16
41	201
42	213
43	999
44	30
53	11
54	24
55	266
56	564
57	39
58	38
61	297
67	12
69	178
70	15
71	12
73	100
82	11
83	41
84	359
85	28
87	14
