Mass spectrum: N-ACETYLASPARTIC ACID DIETHYL ESTER; EI-MS
Formula: C10H17NO5
Exact mass: 231.11067
Instrument type: EI-MS
m/z	relative intensity
28	23
29	17
43	41
44	2
70	49
74	32
88	13
102	2
116	999
117	45
158	773
186	6
188	16
231	14
