Mass spectrum: OCTAMETHYLTRISILANE; EI-MS
Formula: C8H24Si3
Exact mass: 204.11858
Instrument type: EI-MS
m/z	relative intensity
43	30
45	85
59	51
73	834
74	73
75	36
85	15
99	25
101	72
113	13
115	119
116	466
117	85
118	38
129	55
130	20
131	999
132	168
133	84
145	54
173	20
187	23
189	284
190	67
191	38
204	357
205	89
206	47
