Mass spectrum: ACETIC ACID 3-METHOXYBUTYL ESTER; EI-MS
Formula: C7H14O3
Exact mass: 146.09429
Instrument type: EI-MS
m/z	relative intensity
29	32
31	35
41	31
43	189
45	15
55	65
56	33
58	33
59	999
60	36
61	19
71	233
72	23
73	13
85	23
86	106
87	12
108	28
116	11
