Mass spectrum: DIBENZYLHYDRAZONE BENZALDEHYDE; EI-MS
Name: BENZALDEHYDE DIBENZYLHYDRAZONE
Formula: C21H20N2
Exact mass: 300.16265
Instrument type: EI-MS
m/z	relative intensity
27	10
29	8
39	28
41	2
42	8
43	20
51	26
55	1
57	26
63	15
65	95
71	2
77	46
89	41
90	67
91	999
92	95
103	90
104	19
153	2
165	56
166	113
167	22
178	1
179	36
180	14
181	223
182	4
209	21
223	14
300	564
301	14
302	16
