Mass spectrum: ETHYL BENZOATE; EI-MS
Formula: C9H10O2
Exact mass: 150.06808
Instrument type: EI-MS
m/z	relative intensity
15	11
27	70
28	52
29	6
38	11
39	25
45	22
50	10
51	256
52	18
65	13
74	3
75	20
76	35
77	526
78	5
91	14
105	999
106	95
107	1
122	275
123	25
135	12
149	2
150	223
151	24
