Mass spectrum: 1,2,3-TRICHLOROBENZENE; EI-MS
Formula: C6H3Cl3
Exact mass: 179.93003
Instrument type: EI-MS
m/z	relative intensity
49	22
50	30
54	28
55	2
72	65
73	63
74	123
75	8
84	74
85	25
86	23
90	7
91	61
92	22
108	20
109	15
110	32
111	50
144	26
145	25
146	33
147	165
149	25
180	999
181	80
182	972
183	75
184	31
185	20
186	30
