Mass spectrum: META NITROTOLUENE; EI-MS
Formula: C7H7NO2
Exact mass: 137.04768
Instrument type: EI-MS
m/z	relative intensity
27	21
30	35
38	25
39	195
40	13
41	54
50	42
51	71
52	17
53	12
61	12
62	35
63	112
64	28
65	619
66	32
77	64
79	82
89	81
90	35
91	999
92	76
107	99
121	9
137	484
138	40
