Mass spectrum: 2-METHYL-5-PROPIONYLTHIOPHENE; EI-MS
Formula: C8H10OS
Exact mass: 154.04524
Instrument type: EI-MS
m/z	relative intensity
29	61
41	15
42	14
43	97
53	520
54	20
55	41
57	22
59	10
60	36
69	11
73	11
75	21
96	11
97	282
98	19
99	11
101	47
124	11
125	999
126	281
127	282
128	10
139	19
143	10
154	545
155	132
156	65
