Mass spectrum: 2,2-DICHLOROPROPANE; EI-MS
Formula: C3H6Cl2
Exact mass: 111.98466
Instrument type: EI-MS
m/z	relative intensity
15	25
26	16
27	29
29	28
31	61
32	63
35	19
36	15
37	28
38	40
39	146
40	21
41	425
42	18
49	29
61	95
62	19
63	44
76	29
77	999
78	44
79	342
80	12
97	188
98	9
99	125
101	21
