Mass spectrum: 1,4-DIMETHOXYBENZENE; EI-MS
Formula: C8H10O2
Exact mass: 138.06808
Instrument type: EI-MS
m/z	relative intensity
39	81
41	85
50	62
51	42
52	40
53	36
54	56
55	27
62	28
63	45
64	65
65	36
66	25
67	20
69	27
77	14
79	14
80	34
92	45
94	23
95	461
96	33
106	15
108	41
122	16
123	999
124	74
137	26
138	948
139	130
