Mass spectrum: ISOPROPENYL METHYL ETHER; EI-MS
Name: 2-METHOXY-1-PROPENE
Formula: C4H8O
Exact mass: 72.05751
Instrument type: EI-MS
m/z	relative intensity
14	72
15	252
25	25
26	127
27	555
28	54
29	482
30	25
31	62
33	14
36	13
37	73
38	124
39	441
40	169
41	663
42	999
43	208
57	49
72	298
73	20
