Mass spectrum: HEXANAL DIMETHYL ACETAL; EI-MS
Formula: C8H18O2
Exact mass: 146.13068
Instrument type: EI-MS
m/z	relative intensity
15	45
27	90
29	101
31	74
39	54
41	149
42	15
43	53
45	183
47	111
53	11
55	131
57	14
58	80
59	16
71	113
75	999
76	34
83	86
115	118
