Mass spectrum: PHENYLPROPIOLIC ACID METHYL ESTER; EI-MS
Formula: C10H8O2
Exact mass: 160.05243
Instrument type: EI-MS
m/z	relative intensity
44	44
49	37
50	85
51	30
61	48
62	70
63	66
74	7
75	527
76	59
77	66
89	8
98	55
100	26
101	308
102	999
103	78
129	992
130	304
131	4
160	717
161	85
