Mass spectrum: ISOAMYL SALICYLATE; EI-MS
Name: ISOAMYL ORTHO HYDROXY BENZOATE
Formula: C12H16O3
Exact mass: 208.10994
Instrument type: EI-MS
m/z	relative intensity
27	54
29	71
39	159
41	137
42	42
43	418
53	31
55	150
63	44
64	57
65	186
66	13
69	13
70	186
71	98
92	242
93	106
120	999
121	379
122	30
138	354
139	69
208	132
209	17
