Mass spectrum: ISOPENTYL ACETATE; EI-MS
Formula: C7H14O2
Exact mass: 130.09938
Instrument type: EI-MS
m/z	relative intensity
15	57
27	92
28	16
29	70
39	72
40	10
41	148
42	124
43	999
44	29
45	17
53	11
55	365
56	24
57	25
58	19
61	113
69	47
70	482
71	36
73	86
87	88
88	13
