Mass spectrum: 3-METHYL-2-BUTANONE; EI-MS
Formula: C5H10O
Exact mass: 86.07316
Instrument type: EI-MS
m/z	relative intensity
15	44
26	11
27	115
28	13
38	14
39	90
41	163
42	40
43	999
44	22
45	11
71	36
86	150
