Mass spectrum: DIBUTYL SUCCINATE; EI-MS
Formula: C12H22O4
Exact mass: 230.15181
Instrument type: EI-MS
m/z	relative intensity
45	22
54	118
55	242
56	480
73	80
74	80
75	21
100	4
101	999
102	65
119	56
130	3
157	420
158	23
175	120
