Mass spectrum: N,N,2,2-TETRAMETHYL-1-PHNYLTHIOPROPYLAMINE; EI-MS
Formula: C13H21NS
Exact mass: 223.13947
Instrument type: EI-MS
m/z	relative intensity
58	49
110	801
111	11
114	999
115	51
