Mass spectrum: ISOPROPYL ISOBUTYRATE; EI-MS
Formula: C7H14O2
Exact mass: 130.09938
Instrument type: EI-MS
m/z	relative intensity
27	29
31	15
41	91
42	133
43	999
44	35
57	16
59	51
71	775
72	36
73	39
88	32
89	695
90	36
101	51
