Mass spectrum: ETHYL (3S,4S)-3-HYDROXY-4-METHYLHEXANOATE; EI-MS
Formula: C9H18O3
Exact mass: 174.12559
Instrument type: EI-MS
m/z	relative intensity
42	25
43	61
45	25
57	11
70	25
72	20
75	76
82	3
84	40
86	25
87	61
88	8
89	61
96	46
102	658
103	10
110	132
116	106
117	999
119	3
127	61
130	25
131	526
145	7
156	46
170	30
173	25
174	15
