Mass spectrum: ACETIC ACID 2-PHENOXYETHYL ESTER; EI-MS
Formula: C10H12O3
Exact mass: 180.07864
Instrument type: EI-MS
m/z	relative intensity
43	510
44	13
65	15
77	48
79	11
87	999
88	47
91	19
94	116
95	13
107	21
120	25
180	56
