Mass spectrum: 2-PENTANOL; EI-MS
Name: SEC-AMYL ALCOHOL
Formula: C5H12O
Exact mass: 88.08882
Instrument type: EI-MS
m/z	relative intensity
15	18
26	18
27	108
28	3
29	99
30	14
31	481
39	5
41	247
42	26
43	33
45	4
55	27
57	55
58	96
59	999
60	37
