Mass spectrum: THYMOL; EI-MS
Name: 2-ISOPROPYL-5-METHYLPHENOL
Formula: C10H14O
Exact mass: 150.10447
Instrument type: EI-MS
m/z	relative intensity
41	20
77	20
79	12
91	12
105	12
107	40
115	76
117	7
121	12
135	999
136	80
150	28
151	32
