Mass spectrum: 3-METHYL-2-BUTANONE; EI-MS
Formula: C5H10O
Exact mass: 86.07316
Instrument type: EI-MS
m/z	relative intensity
27	29
41	101
42	22
43	999
44	25
45	12
71	67
86	27
87	19
