Mass spectrum: 2-AMINO-1-BUTANOL; EI-MS
Formula: C4H11NO
Exact mass: 89.08406
Instrument type: EI-MS
m/z	relative intensity
15	26
18	53
26	9
27	41
28	100
29	37
30	139
31	35
39	33
41	325
42	168
43	90
44	28
54	11
55	10
56	44
57	22
58	999
59	43
60	178
70	12
72	27
90	22
