Mass spectrum: 5-FORMYL-4,6-DIHYDROXYPYRIMIDINE; EI-MS
Name: 4,6-DIHYDROXYPYRIMIDINE-5-CARBALDEHYDE
Formula: C5H4N2O3
Exact mass: 140.02219
Instrument type: EI-MS
m/z	relative intensity
36	38
38	15
39	16
40	2
41	75
42	108
43	98
44	9
47	15
53	36
56	46
57	19
58	29
67	25
68	46
69	17
70	63
71	73
84	82
112	999
113	58
139	17
140	102
141	10
