Mass spectrum: PERFLUORO-1,1-DIMETHYLCYCLOPENTANE; EI-MS
Formula: C7F14
Exact mass: 349.97764
Instrument type: EI-MS
m/z	relative intensity
12	1
19	1
31	101
43	0
50	18
55	5
62	3
69	999
74	12
79	1
81	7
86	0
93	69
98	1
100	152
105	0
112	15
117	3
119	36
124	0
131	160
143	15
150	88
155	0
162	8
174	1
181	97
193	1
212	6
231	12
243	17
262	0
281	2
331	2
