Mass spectrum: N-NONYL CYANIDE; EI-MS
Formula: C10H19N
Exact mass: 153.15175
Instrument type: EI-MS
m/z	relative intensity
27	348
28	69
29	505
39	217
41	999
42	329
43	691
53	30
54	598
55	285
56	136
57	556
67	105
68	137
69	588
70	156
71	115
79	8
80	11
81	58
82	738
83	703
84	109
93	63
95	34
96	783
97	538
98	62
109	52
110	446
111	202
124	110
138	35
