Mass spectrum: METHYL CYANIDE; EI-MS
Name: ACETONITRILE
Formula: C2H3N
Exact mass: 41.02655
Instrument type: EI-MS
m/z	relative intensity
14	43
26	14
27	10
28	10
38	85
39	164
40	504
41	999
42	42
