Mass spectrum: HEPTYL (3S)-3-HYDROXY-5-METHOXYPENTANOATE; EI-MS
Formula: C13H26O4
Exact mass: 246.18311
Instrument type: EI-MS
m/z	relative intensity
39	60
40	27
41	342
42	29
43	570
44	60
45	911
53	3
54	60
55	342
56	481
57	90
58	181
59	64
60	198
61	9
67	20
68	77
69	124
70	33
71	316
72	64
73	40
81	4
82	20
83	57
84	380
85	15
86	70
87	161
88	20
89	999
90	44
91	60
92	47
96	2
97	291
98	418
99	228
100	17
101	131
102	278
103	57
104	2
112	37
113	354
114	50
115	8
116	595
117	278
118	20
122	3
127	23
129	342
130	329
131	82
132	47
149	80
186	137
187	3
227	23
246	27
