Mass spectrum: ETHYL PROPIONATE; EI-MS
Formula: C5H10O2
Exact mass: 102.06808
Instrument type: EI-MS
m/z	relative intensity
15	27
26	45
27	231
28	150
29	999
30	32
31	35
41	10
42	18
43	43
45	127
55	16
56	36
57	943
58	33
73	58
74	100
75	123
84	12
87	17
102	152
103	10
