Mass spectrum: 3,3-DIMETHYL-1-PHENYL-1,2,3,4-TETRAHYDRO-GAMMA-CARBOLINE; EI-MS
Formula: C19H20N2
Exact mass: 276.16265
Instrument type: EI-MS
m/z	relative intensity
57	19
77	20
78	15
91	1
104	25
117	14
128	10
129	1
130	22
138	14
183	16
189	1
199	65
204	25
216	29
217	12
218	775
219	999
220	100
261	1
273	40
274	34
275	56
276	92
