Mass spectrum: 3,5-DI-TERT-BUTYL-4-HYDROXYTOLUENE; EI-MS
Formula: C15H24O
Exact mass: 220.18272
Instrument type: EI-MS
m/z	relative intensity
18	34
29	96
39	23
41	173
43	33
55	99
57	403
67	92
69	28
77	38
79	31
81	118
91	66
95	64
105	83
115	37
119	46
121	42
128	24
129	29
131	51
133	27
145	167
149	34
161	63
163	30
177	76
189	53
203	30
205	999
206	158
220	251
221	40
