Mass spectrum: PARA-METHOXYPHENYLDIMETHYLCHLOROSILANE; EI-MS
Formula: C9H13ClOSi
Exact mass: 200.04242
Instrument type: EI-MS
m/z	relative intensity
62	87
64	52
74	52
79	29
81	26
98	59
100	38
121	57
142	31
155	38
165	33
169	26
170	25
185	999
186	144
187	377
188	49
200	287
201	47
202	104
