Mass spectrum: BENZYL METHYL ETHER; EI-MS
Formula: C8H10O
Exact mass: 122.07316
Instrument type: EI-MS
m/z	relative intensity
43	75
50	133
51	286
52	69
63	40
65	77
74	52
77	843
78	134
79	49
89	33
91	583
92	121
105	884
106	999
107	79
121	399
122	501
123	43
