Mass spectrum: 1,2-DIHYDROXY-3-(1-NAPHTHOXY)-PROPANE; EI-MS
Formula: C13H14O3
Exact mass: 218.09429
Instrument type: EI-MS
m/z	relative intensity
39	22
41	22
42	28
43	3
44	9
45	80
51	15
55	1
56	9
57	40
59	83
62	1
63	28
64	6
65	12
74	5
75	18
76	8
77	22
87	1
88	9
89	22
101	12
113	1
114	15
115	185
116	95
117	1
126	18
127	83
128	28
129	1
143	31
144	999
145	157
146	1
157	18
169	11
186	9
187	2
218	308
219	49
