Mass spectrum: 2-METHYL-5-(2-(6-METHYL-3-PYRIDYL)ETHYL)-1,2,3,4-TETRAHYDRO-GAMMA-CARBOLINE; EI-MS
Formula: C20H23N3
Exact mass: 305.1892
Instrument type: EI-MS
m/z	relative intensity
42	10
43	82
44	21
57	2
58	10
77	25
91	20
92	2
105	32
106	43
115	70
116	3
117	11
120	72
127	32
128	5
129	35
142	21
143	859
144	8
155	33
156	999
157	92
185	2
199	76
262	185
263	60
304	36
305	512
