Mass spectrum: 1-METHYLETHYL BENZOATE; EI-MS
Name: ISOPROPYL BENZOATE
Formula: C10H12O2
Exact mass: 164.08373
Instrument type: EI-MS
m/z	relative intensity
15	12
27	77
32	12
39	65
41	97
42	24
43	159
50	68
51	210
52	14
59	196
74	18
75	15
76	28
77	417
78	44
79	29
105	999
106	113
122	185
123	278
124	20
146	10
149	18
164	119
165	12
