Mass spectrum: ORTHO CHLOROTOLUENE; EI-MS
Formula: C7H7Cl
Exact mass: 126.02363
Instrument type: EI-MS
m/z	relative intensity
37	10
38	19
39	79
41	12
43	19
44	14
44.5	12
45	47
50	31
51	36
61	17
62	34
63	99
64	19
65	97
73	19
75	17
89	147
90	86
91	999
92	74
99	20
101	7
125	87
126	315
127	50
128	99
129	7
