Mass spectrum: (2R*,3R*)-2-METHYL-3-((1R*)-1-METHYLBUTYL)CYCLOPENTANONE; EI-MS
Formula: C11H20O
Exact mass: 168.15142
Instrument type: EI-MS
m/z	relative intensity
43	454
44	14
53	34
54	2
55	629
56	132
57	17
67	3
68	37
69	680
70	93
71	10
72	13
77	22
80	20
82	2
83	141
84	155
85	32
91	2
95	61
96	60
97	999
98	18
99	24
107	58
108	102
109	2
110	21
121	67
122	30
124	6
125	173
126	85
139	60
140	1
150	37
151	13
166	19
168	34
169	51
