Mass spectrum: DODECANAL DIMETHYL ACETAL; EI-MS
Formula: C14H30O2
Exact mass: 230.22458
Instrument type: EI-MS
m/z	relative intensity
27	27
29	56
31	27
39	16
41	96
42	19
43	60
45	39
47	44
55	87
56	13
57	22
58	10
59	15
67	12
69	31
71	28
72	37
75	999
76	33
81	11
83	14
85	262
86	12
97	14
198	15
199	25
