Mass spectrum: METHYL SALICYLATE; EI-MS
Name: METHYL ORTHO HYDROXY BENZOATE
Formula: C8H8O3
Exact mass: 152.04734
Instrument type: EI-MS
m/z	relative intensity
27	13
29	28
38	48
39	205
50	21
51	16
53	59
62	29
63	128
64	161
65	242
66	21
92	666
93	173
94	18
120	999
121	309
122	21
137	7
152	414
153	36
