Mass spectrum: 6,7-EPOXYOCTADECANOIC ACID METHYL ESTER; EI-MS
Formula: C19H36O3
Exact mass: 312.26645
Instrument type: EI-MS
m/z	relative intensity
41	40
42	20
43	129
54	22
55	154
56	110
57	214
58	22
59	52
67	154
68	201
69	315
70	211
71	140
72	19
73	14
74	100
79	11
80	18
81	76
82	130
83	244
84	148
85	154
86	13
87	183
88	13
93	16
94	15
95	115
96	90
97	323
98	94
99	30
100	14
101	24
109	53
110	27
111	112
112	233
113	999
114	88
115	61
116	54
123	39
124	21
125	33
126	35
127	37
128	67
129	322
130	33
137	19
138	17
139	29
140	28
143	35
144	82
145	208
146	20
147	15
151	11
153	11
157	25
158	24
166	24
167	10
171	13
172	16
179	11
183	13
195	12
197	160
198	28
225	19
238	61
239	14
312	11
