Mass spectrum: PARA-ANISIC ACID METHYL ESTER; EI-MS
Name: METHYL 4-METHOXYBENZOATE
Formula: C9H10O3
Exact mass: 166.06299
Instrument type: EI-MS
m/z	relative intensity
37	19
38	73
39	41
50	11
51	47
52	22
53	31
62	4
63	178
64	233
65	28
66	2
75	47
76	63
77	543
78	4
79	41
92	309
93	19
103	2
104	22
105	15
107	469
108	4
119	25
120	22
121	22
123	3
135	533
136	265
137	25
165	5
166	999
167	111
