Mass spectrum: 2-ETHYLTETRAHYDROFURAN; EI-MS
Formula: C6H12O
Exact mass: 100.08882
Instrument type: EI-MS
m/z	relative intensity
15	25
26	23
27	222
28	4
29	170
31	46
38	18
39	16
40	33
41	313
42	229
43	59
44	23
53	20
55	80
57	8
58	16
59	37
70	73
71	999
73	45
99	12
100	48
