Mass spectrum: 7-METHOXYISOFLAVAN-4ALPHA-OL; EI-MS
Name: 7-METHOXY-3-PHENYLCHROMAN-4(S)-OL
Formula: C16H16O3
Exact mass: 256.10994
Instrument type: EI-MS
m/z	relative intensity
161	610
162	67
195	13
207	7
208	13
209	7
210	33
211	1
223	100
224	17
237	280
238	999
239	160
240	20
