Mass spectrum: HALFORDIN (14-CD3); EI-MS
Formula: C14H12O6
Exact mass: 276.06339
Instrument type: EI-MS
m/z	relative intensity
119	30
147	90
175	70
190	180
193	40
221	60
236	510
261	30
264	200
279	999
