Mass spectrum: 5,5-DIETHOXY-1-DIETHOXYPHOSPHORYL-4-HYDROXYPENTAN-2-ONE; EI-MS
Formula: C13H27O7P
Exact mass: 326.14944
Instrument type: EI-MS
m/z	relative intensity
47	206
75	314
103	999
104	59
123	93
152	56
179	68
223	157
281	60
