Mass spectrum: N-2,4-DINITROPHENYLPYRROLIDINE; EI-MS
Formula: C10H11N3O4
Exact mass: 237.07496
Instrument type: EI-MS
m/z	relative intensity
52	61
54	61
63	102
75	116
76	187
77	93
78	89
89	9
90	75
91	70
103	100
116	8
117	75
118	91
143	167
144	19
145	185
149	327
162	100
164	8
174	102
180	162
189	556
190	95
191	123
220	999
221	139
237	33
238	57
