Mass spectrum: PARA TOLUIC ACID; EI-MS
Formula: C8H8O2
Exact mass: 136.05243
Instrument type: EI-MS
m/z	relative intensity
27	21
38	19
39	138
41	46
43	29
44	11
45	21
50	43
51	61
62	36
63	98
64	20
65	241
77	43
89	68
90	48
91	999
92	158
119	444
120	34
136	500
137	40
