Mass spectrum: 3-METHYL-2-BUTANOL; EI-MS
Formula: C5H12O
Exact mass: 88.08882
Instrument type: EI-MS
m/z	relative intensity
15	10
19	13
27	62
28	12
29	33
31	21
39	42
41	76
42	22
43	124
44	108
45	999
46	22
55	149
57	11
69	10
71	23
73	104
88	5
