Mass spectrum: N-(3-(3,4,5-TRIMETHOXYPHENYL)PROPIONYL)PIPERIDIN-2-ONE; EI-MS
Name: TETRAHYDROPIPERLONGUMINE
Formula: C17H23NO5
Exact mass: 321.15762
Instrument type: EI-MS
m/z	relative intensity
41	60
42	30
43	240
44	20
45	70
55	70
56	160
57	80
61	60
69	80
70	60
71	60
73	30
81	30
82	30
83	40
84	100
85	40
88	20
91	25
94	10
95	20
96	10
97	30
98	25
99	30
100	140
101	30
105	20
106	20
107	10
109	10
110	10
111	10
112	10
113	20
119	30
120	10
121	10
122	10
123	10
125	10
127	10
129	10
132	10
133	10
134	10
135	20
136	20
137	10
138	10
139	10
140	10
141	10
147	15
148	20
149	30
150	10
151	40
152	10
163	10
164	20
165	20
167	10
168	10
169	10
175	15
179	340
180	60
181	160
182	20
191	110
192	20
193	10
194	480
195	20
196	10
207	80
208	15
221	15
222	999
223	140
224	20
233	10
251	10
321	500
322	90
323	15
