Mass spectrum: ISOAMYL HEPTANOATE; EI-MS
Name: ISOPENTYL HEPTANOATE
Formula: C12H24O2
Exact mass: 200.17763
Instrument type: EI-MS
m/z	relative intensity
27	107
29	131
39	68
41	256
42	101
43	628
44	17
45	14
53	14
55	248
56	39
57	60
60	48
61	12
68	11
69	54
70	999
71	272
72	12
73	29
83	13
84	17
85	75
87	31
89	11
101	11
113	331
114	21
115	14
130	25
131	83
157	13
