Mass spectrum: 2-METHYL-1-PENTANOL; EI-MS
Formula: C6H14O
Exact mass: 102.10447
Instrument type: EI-MS
m/z	relative intensity
27	50
29	132
31	109
39	28
41	260
42	192
43	999
44	40
45	35
54	10
55	297
56	225
57	45
59	25
69	262
70	356
71	371
72	21
84	115
85	23
