Mass spectrum: 2,3-DICHLOROPHENOL; EI-MS
Formula: C6H4Cl2O
Exact mass: 161.96392
Instrument type: EI-MS
m/z	relative intensity
51	44
53	104
60	92
61	249
62	432
63	999
64	126
65	48
66	34
71	37
72	153
73	251
74	118
75	88
81	48
82	33
83	26
84	39
85	25
87	51
89	22
91	60
96	31
97	121
98	359
99	221
100	135
101	63
107	33
109	27
125	31
126	592
127	56
128	193
133	53
135	28
161	25
162	690
163	65
164	516
165	29
166	76
