Mass spectrum: 1,2,3,4-TETRAHYDRO-CIS-2-PHENYL-1-NAPHTHYLACETATE; EI-MS
Formula: C18H18O2
Exact mass: 266.13068
Instrument type: EI-MS
m/z	relative intensity
43	20
60	27
91	600
92	2
104	7
105	10
107	40
114	2
117	20
120	250
121	20
128	11
129	27
146	40
162	20
191	5
204	7
205	23
206	999
207	12
208	10
224	70
225	7
