Mass spectrum: N-(3-(2,3-DIMETHYL-1-INDOLYL)-2-METHYLPROPYL)-3,5-DINITROBENZAMIDE; EI-MS
Name: 1-(3-(3,5-DINITROBENZAMIDO)-2-METHYLPROPYL)-2,3-DIMETYLINDOLE
Formula: C21H22N4O5
Exact mass: 410.15902
Instrument type: EI-MS
m/z	relative intensity
75	12
77	21
78	13
115	1
130	15
143	64
144	99
145	7
158	999
159	212
410	900
