Mass spectrum: N-PROPYLHYDRAZONE BENZALDEHYDE; EI-MS
Name: BENZALDEHYDE PROPYLHYDRAZONE
Formula: C10H14N2
Exact mass: 162.1157
Instrument type: EI-MS
m/z	relative intensity
30	44
39	70
41	72
42	4
43	37
50	44
51	148
55	8
63	39
65	74
66.5	63
76	4
77	44
78	59
89	65
90	5
91	44
92	59
103	35
104	35
105	48
106	35
111	44
119	7
133	999
134	113
162	479
163	70
