Mass spectrum: BENZOPHENONE; EI-MS
Name: DIPHENYL KETONE
Formula: C13H10O
Exact mass: 182.07316
Instrument type: EI-MS
m/z	relative intensity
27	14
39	15
50	85
51	310
52	23
63	16
74	31
75	30
76	50
77	628
78	55
105	999
106	71
151	11
152	28
153	18
154	17
181	60
182	462
183	68
