Mass spectrum: PARA-FLUOROBENZALDEHYDE; EI-MS
Formula: C7H5FO
Exact mass: 124.03244
Instrument type: EI-MS
m/z	relative intensity
18	12
26	26
27	24
29	182
31	63
36	11
37	80
38	74
39	76
43	31
44	13
45	20
48	20
49	52
50	297
51	148
52	21
53	12
56	20
57	68
61	52
62	56
63	63
68	87
69	136
70	133
73	37
74	160
75	447
76	55
77	18
81	20
92	20
93	23
94	69
95	917
96	201
97	13
109	22
123	999
124	933
125	84
