Mass spectrum: 1,4-DIMETHOXYBENZENE; EI-MS
Name: HYDROQUINONE DIMETHYL ETHER
Formula: C8H10O2
Exact mass: 138.06808
Instrument type: EI-MS
m/z	relative intensity
80	2
95	57
96	4
107	2
108	3
109	2
110	3
123	534
124	43
125	3
138	999
139	88
140	7
