Mass spectrum: ISOPROPYLIODIDE; EI-MS
Name: 2-IODOPROPANE
Formula: C3H7I
Exact mass: 169.95924
Instrument type: EI-MS
m/z	relative intensity
15	30
26	38
27	404
37	22
38	42
39	228
40	35
41	473
42	43
43	999
44	33
45	11
127	132
128	20
170	221
