Mass spectrum: 1,1-DIMETHYL-2-PHENYLETHYL PROPIONATE; EI-MS
Name: DIMETHYL BENZYL CARBINYL PROPIONATE
Formula: C13H18O2
Exact mass: 206.13068
Instrument type: EI-MS
m/z	relative intensity
27	54
28	15
29	223
39	40
41	22
43	60
51	22
55	26
57	999
58	29
59	31
63	15
65	62
77	15
78	10
89	13
91	252
92	25
105	15
115	61
116	10
117	67
132	232
133	75
148	21
