Mass spectrum: 5-METHYLPYRIMIDO(3,4-A)INDOLE; EI-MS
Formula: C12H10N2
Exact mass: 182.0844
Instrument type: EI-MS
m/z	relative intensity
51	82
77	128
91	32
102	3
127	78
128	76
153	15
154	9
180	77
181	999
182	795
