Mass spectrum: P-METHOXYPHENOL; EI-MS
Name: HYDROQUINONE MONOMETHYL ETHER
Formula: C7H8O2
Exact mass: 124.05243
Instrument type: EI-MS
m/z	relative intensity
15	58
26	68
27	128
29	49
37	14
38	41
39	131
41	25
50	45
51	69
52	81
53	218
54	68
55	54
61	18
62	43
63	65
64	20
65	74
66	13
79	11
80	15
81	570
82	41
93	13
95	24
109	996
110	70
123	20
124	999
125	81
