Mass spectrum: 2-ETHYLBUTYL ACETATE; EI-MS
Formula: C8H16O2
Exact mass: 144.11503
Instrument type: EI-MS
m/z	relative intensity
15	32
27	93
29	106
31	12
39	57
41	135
42	85
43	999
44	27
53	13
54	10
55	185
56	114
57	16
61	22
69	179
70	48
71	47
72	14
73	106
74	102
75	14
84	285
85	26
86	33
