Mass spectrum: 1-METHOXY-3,3-DIMETHYLBICYCLO(2.2.2)OCT-5-EN-2-ONE; EI-MS
Formula: C11H16O2
Exact mass: 180.11503
Instrument type: EI-MS
m/z	relative intensity
29	7
32	80
41	36
43	4
45	95
59	18
67	47
68	1
69	11
77	25
79	95
80	2
81	44
91	36
93	25
94	3
95	51
96	15
103	11
105	8
106	18
107	29
108	36
109	22
110	338
111	33
121	22
122	2
123	18
124	18
136	15
137	999
138	84
151	15
152	330
153	3
180	18
