Mass spectrum: 4-OXOVALERIC ACID METHYL ESTER; EI-MS
Name: LEVULINIC ACID METHYL ESTER
Formula: C6H10O3
Exact mass: 130.06299
Instrument type: EI-MS
m/z	relative intensity
42	112
43	387
44	62
51	2
53	23
55	572
56	156
57	53
58	35
59	104
70	12
71	26
72	13
75	15
81	27
87	24
88	410
89	26
98	439
99	999
100	64
115	224
116	41
130	15
131	10
