Mass spectrum: PROPYL PALMITATE; EI-MS
Name: PROPYL HEXADECANOATE
Formula: C19H38O2
Exact mass: 298.28718
Instrument type: EI-MS
m/z	relative intensity
27	123
29	202
31	17
39	53
41	545
42	234
43	999
44	24
45	16
53	20
54	33
55	410
56	109
57	438
58	30
59	40
60	440
61	971
62	20
67	49
68	32
69	238
70	48
71	209
72	13
73	420
74	35
75	13
79	13
81	44
82	24
83	153
84	61
85	109
87	110
95	39
96	19
97	118
98	60
99	22
101	37
102	519
103	157
109	19
111	42
112	19
113	11
115	350
116	30
123	12
125	25
129	109
130	11
139	15
143	18
144	10
157	43
158	10
171	103
172	11
185	20
199	18
213	57
227	22
237	11
239	256
240	39
255	35
256	50
257	249
258	36
298	155
299	30
