Mass spectrum: 3,4,6-TRI-O-ACETYL-D-GLUCAL; EI-MS
Formula: C12H16O7
Exact mass: 272.0896
Instrument type: EI-MS
m/z	relative intensity
54	60
60	320
68	100
69	8
73	330
80	80
81	400
85	6
86	270
97	990
102	10
110	999
127	50
128	220
139	900
144	1
145	70
152	360
170	100
199	2
229	30
