Mass spectrum: TEREPHTHALIC ACID METHYL ESTER; EI-MS
Formula: C10H10O4
Exact mass: 194.05791
Instrument type: EI-MS
m/z	relative intensity
50	46
52	62
53	23
66	2
75	93
76	124
77	54
82	2
92	23
103	162
104	69
107	5
110	15
119	23
120	62
133	2
135	310
136	31
163	999
164	12
165	38
179	54
191	15
193	2
194	248
195	38
