Mass spectrum: 1,1,1-TRICHLOROETHANE; EI-MS
Formula: C2H3Cl3
Exact mass: 131.93003
Instrument type: EI-MS
m/z	relative intensity
26	11
27	55
61	311
62	28
63	108
96	11
97	999
98	28
99	639
100	15
101	103
117	108
119	104
121	33
123	4
