Mass spectrum: 2-METHYLCYCLOHEXANONE; EI-MS
Formula: C7H12O
Exact mass: 112.08882
Instrument type: EI-MS
m/z	relative intensity
40	13
42	482
43	266
50	14
51	22
53	53
54	38
55	509
56	477
57	59
58	115
59	27
66	13
67	96
68	999
69	511
70	145
71	42
79	55
81	42
83	225
84	331
85	21
94	48
97	143
98	18
111	16
112	605
113	49
