Mass spectrum: METHYL ETHYL SULFIDE; EI-MS
Formula: C3H8S
Exact mass: 76.03467
Instrument type: EI-MS
m/z	relative intensity
14	12
15	34
26	57
27	346
28	20
29	163
35	165
41	47
44	13
45	305
46	107
47	385
48	516
49	49
50	19
57	23
58	47
59	54
60	26
61	999
62	26
63	38
75	31
76	636
77	24
78	23
