Mass spectrum: 2-PHENYLETHYL FORMATE; EI-MS
Formula: C9H10O2
Exact mass: 150.06808
Instrument type: EI-MS
m/z	relative intensity
27	29
29	73
31	76
38	11
39	84
41	14
50	36
51	84
52	18
62	12
63	46
65	123
77	82
78	69
79	29
89	21
91	523
92	59
103	75
104	999
105	119
