Mass spectrum: DIMETHYLHYDRAZONE PROPIONALDEHYDE; EI-MS
Name: PROPIONALDEHYDE DIMETHYLHYDRAZONE
Formula: C5H12N2
Exact mass: 100.10005
Instrument type: EI-MS
m/z	relative intensity
27	158
28	267
29	111
30	9
39	69
40	33
41	106
42	45
43	661
44	999
45	491
46	3
54	26
55	24
56	103
57	4
58	157
59	28
71	59
72	2
85	346
86	22
99	90
100	72
101	64
