Mass spectrum: 1-PHENYLBICYCLO(3.2.2)NONA-6,8-DIEN-2-ONE; EI-MS
Formula: C15H14O
Exact mass: 210.10447
Instrument type: EI-MS
m/z	relative intensity
40	28
56	37
77	26
78	2
105	28
106	19
115	19
122	2
128	20
129	19
141	28
152	6
153	183
154	999
155	170
156	4
165	56
166	37
167	418
168	15
169	37
170	19
178	28
179	3
180	21
181	34
182	37
183	2
191	22
192	34
209	30
210	37
211	78
212	37
