Mass spectrum: SEC-BUTYL ACETATE; EI-MS
Formula: C6H12O2
Exact mass: 116.08373
Instrument type: EI-MS
m/z	relative intensity
28	10
29	32
41	79
43	999
44	26
45	28
55	19
56	292
57	76
59	12
61	61
72	15
73	72
87	243
88	12
101	45
116	7
