Mass spectrum: N,N-DIMETHYLBENZAMIDE; EI-MS
Formula: C9H11NO
Exact mass: 149.08406
Instrument type: EI-MS
m/z	relative intensity
14	31
15	46
18	186
28	404
29	17
36	18
38	15
39	2
40	11
41	16
42	106
44	6
50	88
51	223
52	20
69	8
72	33
74	29
75	24
76	4
77	672
78	51
91	15
105	999
106	92
119	22
131	31
148	43
149	270
150	28
