Mass spectrum: 3,4-METHYLENEDIOXYBENZALDEHYDE; EI-MS
Name: HELIOTROPINE
Formula: C8H6O3
Exact mass: 150.03169
Instrument type: EI-MS
m/z	relative intensity
26	11
29	87
30	10
37	41
38	72
39	70
49	15
50	52
51	50
52	11
53	57
61	73
62	139
63	348
64	67
65	219
66	30
74	26
79	15
91	93
92	18
119	63
120	14
121	277
122	26
149	999
150	876
151	65
