Mass spectrum: 2-(2-HYDROXYPHENYL)-4-PIPERIDYLPYRIMIDINE; EI-MS
Formula: C15H17N3O
Exact mass: 255.13716
Instrument type: EI-MS
m/z	relative intensity
38	10
39	46
40	24
41	11
42	128
43	27
44	258
45	2
51	13
52	43
53	56
54	5
55	46
56	29
57	81
60	1
63	14
64	17
65	35
66	5
67	31
68	14
69	19
70	1
71	16
71.5	11
73	10
77	4
78	14
79	29
80	32
81	3
82	22
83	19
84	367
85	2
85.5	15
90	14
91	48
92	2
93	11
94	11
95	14
99.5	1
100.5	11
102	29
103	12
104	1
105	150
106	14
106.5	14
107	5
108	20
113.5	40
115	18
116	1
117	14
118	17
119	14
120	11
121	17
123	24
124	10
125	1
127	14
128	24
129	11
133	2
135	32
137	11
139	15
142	1
143	25
144	84
145	24
146	1
147	22
149	22
151	14
152	1
153	22
154	13
161	10
163	7
164	19
165	27
168	14
171	10
172	185
173	43
175	27
177	2
178	17
179	10
180	31
181	1
186	25
187	44
188	12
190	1
198	10
199	84
200	153
201	6
203	11
205	10
208	10
212	8
213	44
214	53
215	10
217	1
219	97
220	18
226	305
227	10
228	10
232	31
233	42
240	4
253	14
254	177
255	999
256	16
257	14
