Mass spectrum: 3-METHYL-1-BUTANOL; EI-MS
Formula: C5H12O
Exact mass: 88.08882
Instrument type: EI-MS
m/z	relative intensity
27	107
28	81
29	227
31	236
39	60
40	19
41	484
42	780
43	597
44	42
45	161
46	68
47	13
53	20
54	15
55	999
56	122
57	255
58	12
69	72
70	784
71	139
87	6
88	1
