Mass spectrum: ETHYLENE GLYCOL MONOISOBUTYL ETHER; EI-MS
Formula: C6H14O2
Exact mass: 118.09938
Instrument type: EI-MS
m/z	relative intensity
27	10
29	103
31	31
41	19
42	15
43	28
45	626
46	2
55	28
56	96
57	999
58	5
59	34
61	10
62	13
63	2
71	40
72	21
73	30
75	23
76	12
87	105
100	12
