Mass spectrum: 1,2,3,5-CYCLOHEXANETETROL; EI-MS
Formula: C6H12O4
Exact mass: 148.07356
Instrument type: EI-MS
m/z	relative intensity
43	356
45	440
56	770
57	68
60	999
73	590
86	453
112	56
148	30
