Mass spectrum: 1-BROMO-4-NITROBENZENE; EI-MS
Formula: C6H4BrNO2
Exact mass: 200.94254
Instrument type: EI-MS
m/z	relative intensity
27	19
30	165
37	77
38	104
39	43
49	49
50	720
51	88
61	29
62	32
63	88
64	66
65	22
73	71
74	350
75	999
76	790
77	56
92	47
117	22
119	21
129	26
131	24
143	302
144	15
145	295
146	14
155	715
156	54
157	693
158	46
171	532
172	38
173	520
174	33
185	33
187	32
201	663
202	44
203	643
204	44
