Mass spectrum: (2E,6E,10E)-1-(2-OXA-3-OXO-4,7,7-TRIMETHYL-BICYCLO(2,2,1)HEPTANECARBONYLOXY)-14-ISOPROPENYL-3,7,11-TRIMETHYLCYCLOTETRADECATRIENE; EI-MS
Name: TRANS-2-CANPHANYLOXY-NEOCEMBRENE
Formula: C30H44O4
Exact mass: 468.32396
Instrument type: EI-MS
m/z	relative intensity
17	16
18	280
28	428
29	2
32	114
41	60
43	93
44	4
55	273
56	20
57	30
60	2
67	186
68	78
69	176
70	5
73	19
78	20
79	121
80	6
81	401
82	104
83	346
84	5
85	18
91	143
92	87
93	60
94	142
95	248
96	46
97	10
105	392
106	179
107	383
108	20
109	710
110	53
111	97
112	3
117	62
118	58
119	773
120	33
121	360
122	124
123	83
124	7
125	222
126	31
127	83
129	3
130	17
131	187
132	161
133	66
134	452
135	180
136	85
137	11
139	199
140	16
143	38
144	4
145	332
146	170
147	225
148	16
149	106
150	18
151	17
152	16
153	38
154	27
155	19
157	12
158	67
159	999
160	278
161	20
162	58
163	53
164	30
170	19
171	85
172	49
173	172
174	6
175	100
176	64
177	30
181	3
185	182
186	73
187	210
188	7
189	99
190	28
199	148
200	5
201	94
202	99
203	20
213	5
214	44
215	75
216	17
227	10
228	40
229	18
241	41
242	4
255	248
256	59
270	522
271	14
469	16
