Mass spectrum: 2-HYDROXYBENZAMIDE; EI-MS
Formula: C7H7NO2
Exact mass: 137.04768
Instrument type: EI-MS
m/z	relative intensity
39	27
44	10
63	21
64	86
65	109
66	12
80	12
91	122
92	482
93	84
119	140
120	999
121	164
122	13
137	692
138	67
