Mass spectrum: FUMARIC ACID; EI-MS
Formula: C4H4O4
Exact mass: 116.01096
Instrument type: EI-MS
m/z	relative intensity
44	205
45	681
52	335
54	20
71	173
98	999
99	395
116	359
