Mass spectrum: 1-ALLYL-1-METHYLHYDRAZINE; EI-MS
Formula: C4H10N2
Exact mass: 86.0844
Instrument type: EI-MS
m/z	relative intensity
27	66
28	60
29	57
30	8
31	21
39	134
41	179
42	22
43	134
44	92
45	999
46	3
56	24
59	171
68	33
86	32
87	19
