Mass spectrum: CYCLOPENTANE; EI-MS
Formula: C5H10
Exact mass: 70.07825
Instrument type: EI-MS
m/z	relative intensity
27	50
28	14
29	29
39	107
40	42
41	221
42	999
43	46
53	14
54	11
55	357
56	16
67	14
68	16
69	36
70	260
71	17
