Mass spectrum: 2,2'-DI(4-HEXYLOXYPHENYL)-5,5'-DIAZODIPYRIMIDINE; EI-MS
Formula: C32H38N6O2
Exact mass: 538.30562
Instrument type: EI-MS
m/z	relative intensity
38	12
39	52
40	178
41	24
42	39
43	591
44	101
50	1
51	17
53	23
54	10
55	15
56	32
57	77
63	13
65	5
67	34
68	10
69	43
70	1
71	15
76	17
77	23
78	1
79	18
80	10
81	39
82	1
83	35
84	10
85	27
89	1
91	27
93	42
94	10
95	3
96	12
97	20
103	27
104	1
105	13
107	12
109	28
111	1
115	22
116	18
119	50
120	16
121	13
123	18
127	22
128	1
130	12
131	15
132	22
135	1
142	37
143	29
144	285
145	3
149	15
154	13
155	11
157	1
158	51
159	168
160	22
170	4
171	926
172	121
173	11
177	1
189	19
185	66
186	302
187	34
188	43
197	17
199	114
200	2
223	11
224	17
228	21
255	8
256	17
271	79
272	14
369	6
370	638
371	148
372	18
453	2
454	282
455	94
456	15
537	1
538	999
539	369
540	65
