Mass spectrum: METHYL 2,5-DICHLORO-3-AMINOBENZOATE; EI-MS
Formula: C8H7Cl2NO2
Exact mass: 218.98538
Instrument type: EI-MS
m/z	relative intensity
28	13
38	13
41	12
52	27
60	12
61	35
62	70
63	70
64	10
65	25
73	40
74	13
75	18
88	23
89	40
90	60
94	42
95	29
96	15
97	88
98	18
99	40
124	253
125	67
126	98
127	22
133	57
135	33
154	16
159	10
160	341
161	137
162	223
163	85
164	36
165	12
169	18
188	999
189	90
190	645
191	55
192	102
219	940
220	90
221	600
222	63
223	97
