Mass spectrum: 5-METHYL-1,2,3,4-TETRAHYDROPYRIMIDO(1,6-A)INDOLE; EI-MS
Formula: C12H14N2
Exact mass: 186.1157
Instrument type: EI-MS
m/z	relative intensity
51	25
77	45
115	33
128	3
143	87
144	999
145	68
156	6
157	253
185	12
186	322
