Mass spectrum: 2,4-DIMETHYLBENZOIC ACID METHYL ESTER; EI-MS
Formula: C10H12O2
Exact mass: 164.08373
Instrument type: EI-MS
m/z	relative intensity
42	18
45	43
50	18
51	8
52	43
53	56
59	12
60	1
62	25
63	43
65	43
66	1
74	50
75	12
77	218
78	8
79	156
80	25
89	43
91	6
93	12
102	25
103	112
104	18
105	575
106	68
119	25
120	3
123	12
132	587
133	999
134	10
135	31
137	12
140	18
147	2
149	37
163	37
164	468
165	50
