Mass spectrum: 2-TERT-BUTYLCYCLOHEXANOL; EI-MS
Formula: C10H20O
Exact mass: 156.15142
Instrument type: EI-MS
m/z	relative intensity
27	56
28	30
29	130
31	3
39	60
40	25
41	260
42	4
43	115
44	40
45	30
53	4
54	130
55	183
56	150
57	999
58	41
59	25
66	30
67	56
68	50
69	80
70	80
71	3
77	40
79	20
80	180
81	31
82	870
83	225
84	35
85	3
95	60
96	23
97	50
98	6
99	100
100	30
101	29
110	3
123	125
124	42
138	20
139	2
141	30
