Mass spectrum: 1-NAPHTHOL; EI-MS
Formula: C10H8O
Exact mass: 144.05751
Instrument type: EI-MS
m/z	relative intensity
26	10
27	20
29	18
37	10
38	25
39	77
50	52
51	53
52	10
53	15
57	49
58	50
61	20
62	61
63	140
64	23
65	45
72	65
74	43
75	37
76	19
77	20
85	11
86	26
87	40
88	31
89	114
90	20
113	30
114	46
115	893
116	424
117	32
143	16
144	999
145	99
