Mass spectrum: 3-NITROPHENOL; EI-MS
Name: 3-HYDROXYNITROBENZENE
Formula: C6H5NO3
Exact mass: 139.02694
Instrument type: EI-MS
m/z	relative intensity
27	62
28	14
29	36
30	106
37	38
38	119
39	704
40	19
43	22
50	52
51	41
53	171
55	16
61	27
62	74
63	173
64	89
65	782
66	69
74	23
75	19
81	188
92	19
93	623
94	41
109	62
123	22
139	999
140	72
141	15
