Mass spectrum: GAMMA-UNDECALACTONE; EI-MS
Formula: C11H20O2
Exact mass: 184.14633
Instrument type: EI-MS
m/z	relative intensity
27	114
28	42
29	256
39	57
40	11
41	182
42	50
43	103
44	11
53	17
54	22
55	134
56	109
57	74
60	12
67	20
68	22
69	56
70	30
71	16
72	21
73	14
81	18
82	19
83	26
84	39
85	999
86	37
87	11
95	14
96	17
97	14
98	13
100	39
101	17
110	13
114	19
122	12
124	15
125	14
127	17
128	73
