Mass spectrum: METHYL PHENYLETHYL ETHER; EI-MS
Formula: C9H12O
Exact mass: 136.08882
Instrument type: EI-MS
m/z	relative intensity
15	28
18	15
27	18
29	38
39	52
45	999
46	21
50	25
51	52
52	13
63	30
65	92
77	52
78	27
79	18
89	18
91	371
92	29
103	34
104	97
105	34
136	239
137	23
