Mass spectrum: (Z)-3,7-DIMETHYL-2,6-OCTADIENYL HEPTANOATE; EI-MS
Name: NERYL HEPTANOATE
Formula: C17H30O2
Exact mass: 266.22458
Instrument type: EI-MS
m/z	relative intensity
27	122
29	107
39	137
41	675
42	54
43	406
44	11
45	12
51	18
52	12
53	136
54	14
55	116
56	17
57	55
60	29
65	24
66	15
67	186
68	641
69	999
70	66
73	16
77	68
78	14
79	97
80	359
81	174
82	18
83	17
84	24
85	101
91	73
92	191
93	886
94	144
95	61
105	25
107	102
108	27
113	206
114	15
121	316
122	26
123	24
136	214
137	46
154	24
