Mass spectrum: CYCLOHEXANE; EI-MS
Formula: C6H12
Exact mass: 84.0939
Instrument type: EI-MS
m/z	relative intensity
40	513
42	277
43	130
50	11
51	17
53	32
54	54
55	316
56	999
57	46
67	24
68	18
69	228
70	12
83	38
84	605
85	39
