Mass spectrum: N-PENTYLACETAMIDE; EI-MS
Name: ACETYLAMINOPENTANE
Formula: C7H15NO
Exact mass: 129.11536
Instrument type: EI-MS
m/z	relative intensity
28	13
30	999
31	24
42	31
43	51
44	317
45	43
55	18
56	11
58	96
59	11
60	215
70	20
72	720
73	848
74	34
86	345
87	143
100	294
101	25
114	270
115	17
129	288
130	47
