Mass spectrum: 1,2,3-TRIMETHYLBENZENE; EI-MS
Formula: C9H12
Exact mass: 120.0939
Instrument type: EI-MS
m/z	relative intensity
15	13
27	51
38	13
39	102
40	12
41	36
50	29
51	69
52	23
53	33
58	14
59	15
62	14
63	42
65	46
74	10
77	125
78	45
79	64
89	13
91	92
92	16
102	14
103	54
104	26
105	999
106	73
115	29
117	24
119	106
120	481
121	42
