Mass spectrum: DIETHYL TEREPHTHALATE; EI-MS
Formula: C12H14O4
Exact mass: 222.08921
Instrument type: EI-MS
m/z	relative intensity
26	16
27	89
29	145
39	3
43	10
45	57
50	97
51	4
52	30
53	11
65	231
66	7
74	26
75	76
76	171
77	4
93	27
103	102
104	152
105	4
121	139
122	28
132	19
133	2
149	532
150	95
151	11
166	29
167	27
176	17
177	999
178	13
179	18
193	97
194	210
195	3
221	18
222	250
223	35
