Mass spectrum: HEXYL ETHER; EI-MS
Formula: C12H26O
Exact mass: 186.19837
Instrument type: EI-MS
m/z	relative intensity
41	24
42	51
43	664
44	2
45	11
55	88
56	391
57	14
69	99
70	13
72	10
82	2
83	187
84	338
85	999
86	7
101	16
103	43
115	43
