Mass spectrum: 3-METHOXY-2,6-DIMETHYL-(6R)-((2R)-2-METHYLBUTYRYLOXY)-5-(4-NITROBENZOYLOXY)-2,4-CYCLOHEXADIEN-1-ONE; EI-MS
Formula: C21H23NO8
Exact mass: 417.14237
Instrument type: EI-MS
m/z	relative intensity
40	650
41	275
42	40
43	30
44	585
45	40
55	75
56	7
57	999
58	40
69	80
74	22
78	70
83	40
85	355
87	6
104	85
120	45
127	85
128	4
139	80
140	65
141	60
142	7
150	290
151	50
154	35
157	18
166	125
167	45
168	35
183	7
184	75
251	20
317	35
333	5
417	10
