Mass spectrum: N,N-DIMETHYLACETAMIDE; EI-MS
Formula: C4H9NO
Exact mass: 87.06841
Instrument type: EI-MS
m/z	relative intensity
15	69
18	29
28	32
30	74
41	20
42	188
43	402
44	999
45	211
56	12
72	157
87	580
88	47
