Mass spectrum: 2-ISOBUTYL-4-METHYLTHIAZOLE; EI-MS
Formula: C8H13NS
Exact mass: 155.07687
Instrument type: EI-MS
m/z	relative intensity
27	11
39	30
41	110
42	20
43	240
45	60
46	10
47	10
68	199
71	170
72	419
73	229
74	29
75	10
85	20
100	10
112	323
113	999
114	216
115	176
139	10
140	380
141	20
142	10
154	128
155	260
156	39
