Mass spectrum: N-ACETYL-ALANYL-ALANINE METHYL ESTER; EI-MS
Formula: C9H16N2O4
Exact mass: 216.11101
Instrument type: EI-MS
m/z	relative intensity
15	66
27	20
28	53
30	5
41	11
42	62
43	133
44	999
45	34
55	14
59	19
70	2
72	86
86	208
87	353
88	2
99	12
102	17
114	32
157	17
