Mass spectrum: P-CRESYL HEPTANOATE; EI-MS
Name: 4-METHYLPHENYL HEPTANOATE
Formula: C14H20O2
Exact mass: 220.14633
Instrument type: EI-MS
m/z	relative intensity
27	56
29	38
39	32
41	95
42	18
43	299
51	17
52	11
53	17
55	59
57	33
65	19
69	10
77	66
78	18
79	27
80	11
86	37
91	25
107	99
108	999
109	103
113	47
220	33
