Mass spectrum: 1,3-DIMETHYLBUTYL ISOBUTYRATE; EI-MS
Formula: C10H20O2
Exact mass: 172.14633
Instrument type: EI-MS
m/z	relative intensity
27	134
29	54
39	88
40	12
41	271
42	87
43	999
44	35
45	73
55	54
56	25
57	90
69	218
70	15
71	742
72	26
83	11
84	252
85	355
86	20
89	56
115	110
