Mass spectrum: 1,3-DIOXOLANE; EI-MS
Name: 1,3-DIOXACYCLOPENTANE
Formula: C3H6O2
Exact mass: 74.03678
Instrument type: EI-MS
m/z	relative intensity
14	35
15	160
29	381
30	21
31	74
41	43
42	44
43	240
44	571
45	265
55	32
56	13
57	48
69	19
71	22
73	999
74	65
75	10
