Mass spectrum: 4-METHYL-8-HYDROXYQUINOLINE; EI-MS
Name: 4-METHYL-8-QUINOLINOL
Formula: C10H9NO
Exact mass: 159.06841
Instrument type: EI-MS
m/z	relative intensity
27	10
29	14
39	37
40	18
51	68
52	34
645	47
65	63
77	86
795	29
102	30
103	48
104	26
116	18
129	49
130	228
131	316
132	34
158	26
159	999
160	118
161	10
