Mass spectrum: 1,3-BIS(TRIMETHYLSILYL)PROPANE; EI-MS
Formula: C9H24Si2
Exact mass: 188.14165
Instrument type: EI-MS
m/z	relative intensity
42	19
43	209
44	22
45	99
49	85
51	33
58	94
59	86
72	148
73	999
74	97
75	36
84	67
85	41
86	37
99	276
100	183
101	44
114	106
115	22
117	17
119	15
159	20
173	269
174	57
175	20
188	73
189	13
