Mass spectrum: PIPERIDINE; EI-MS
Formula: C5H11N
Exact mass: 85.08915
Instrument type: EI-MS
m/z	relative intensity
26	37
27	167
29	262
30	19
38	15
39	131
40	28
41	17
42	348
43	209
45	10
50	2
51	23
52	23
53	40
54	6
55	129
56	554
57	385
58	2
65	10
67	32
68	48
69	2
70	131
71	18
78	10
79	1
80	22
81	10
82	46
83	3
84	999
85	466
86	30
