Mass spectrum: ALLYL ACETATE; EI-MS
Formula: C5H8O2
Exact mass: 100.05243
Instrument type: EI-MS
m/z	relative intensity
14	13
15	66
26	16
27	38
28	15
29	28
31	11
38	16
39	106
40	26
41	121
42	27
43	999
44	25
57	77
58	110
61	26
72	11
100	4
