Mass spectrum: 2-PYRIDYL O-TOLYL ETHER; EI-MS
Formula: C12H11NO
Exact mass: 185.08406
Instrument type: EI-MS
m/z	relative intensity
50	60
51	270
52	140
53	60
63	80
64	40
65	170
74	140
77	160
78	300
79	160
89	110
90	60
91	140
104	150
128	50
129	60
130	110
154	70
156	200
167	90
168	999
169	170
170	540
171	80
183	50
184	680
185	750
186	200
