Mass spectrum: 2',3'-DIHYDRO-5,7-DIHYDROXY-2',2'-DIMETHYL-3,6'-BI(4H-1-BENZOPYRAN)-4-ONE; EI-MS
Formula: C20H18O5
Exact mass: 338.11542
Instrument type: EI-MS
m/z	relative intensity
41	680
42	130
43	330
44	80
45	80
47	80
48	80
49	180
50	890
51	750
52	620
53	180
54	80
55	250
56	150
57	150
58	80
61	80
62	100
63	300
64	80
65	150
67	90
68	80
69	150
70	50
71	50
73	80
74	220
75	120
76	310
77	680
78	900
79	310
80	40
81	90
82	60
83	70
85	60
89	60
91	150
92	70
93	90
95	60
96	60
102	60
103	50
104	110
105	110
107	50
109	100
115	100
117	100
119	90
121	60
122	50
123	60
127	60
128	60
129	60
131	110
133	80
139	110
141	100
149	480
150	100
152	100
153	170
154	50
155	50
169	50
205	120
223	80
253	300
254	130
255	110
269	140
265	50
281	50
282	390
283	780
284	180
295	140
296	70
306	60
309	150
310	60
321	80
323	160
337	80
338	999
339	250
