Mass spectrum: 2,3-DIMETHYL-4-NITROINDOLE; EI-MS
Formula: C10H10N2O2
Exact mass: 190.07423
Instrument type: EI-MS
m/z	relative intensity
45	246
51	69
53	43
54	6
55	688
56	229
57	938
60	65
61	106
63	59
65	35
67	19
68	146
69	679
70	208
71	54
73	42
74	45
75	50
76	4
77	122
78	38
79	40
80	3
81	479
82	167
83	356
84	17
85	313
87	66
89	97
90	7
91	76
93	64
94	40
95	19
96	94
97	271
98	108
99	7
101	63
102	59
103	43
105	3
107	35
109	82
110	43
111	11
112	40
113	56
116	61
117	6
121	45
123	71
125	42
127	4
128	70
129	188
135	30
136	5
137	89
141	38
142	132
143	999
144	354
145	73
149	167
159	3
160	70
173	729
174	59
178	3
185	36
189	30
190	917
191	87
