Mass spectrum: HEPTYLALDEHYDE; EI-MS
Formula: C7H14O
Exact mass: 114.10447
Instrument type: EI-MS
m/z	relative intensity
27	34
28	20
29	181
30	1
31	11
41	272
42	442
43	66
44	982
45	232
54	61
55	44
56	62
57	427
58	69
60	1
67	67
68	171
69	54
70	999
71	225
72	108
81	197
82	2
83	16
85	39
86	168
87	1
95	22
96	163
97	20
114	9
