Mass spectrum: META-METHOXYTOLUENE; EI-MS
Formula: C8H10O
Exact mass: 122.07316
Instrument type: EI-MS
m/z	relative intensity
39	23
53	26
65	28
77	162
78	38
79	218
80	18
90	13
91	284
92	193
93	53
107	141
108	13
121	103
122	999
123	93
