Mass spectrum: PARA-METHOXYTOLUENE; EI-MS
Formula: C8H10O
Exact mass: 122.07316
Instrument type: EI-MS
m/z	relative intensity
26	12
28	23
29	24
30	11
38	19
39	81
41	11
50	57
51	138
52	62
53	73
61	12
62	31
63	69
64	20
65	75
74	14
75	11
76	11
77	402
78	145
79	295
80	20
89	36
90	18
91	210
92	85
93	16
107	305
108	32
121	404
122	999
123	91
