Mass spectrum: 4-SEC-BUTYLPHENOL; EI-MS
Formula: C10H14O
Exact mass: 150.10447
Instrument type: EI-MS
m/z	relative intensity
15	10
26	10
27	73
28	18
29	57
39	64
41	32
50	11
51	31
52	11
53	21
55	23
63	25
65	58
66	17
77	137
78	23
79	16
89	11
91	117
92	20
93	43
95	11
103	87
105	11
107	124
108	12
119	21
120	50
121	999
122	90
135	38
150	197
151	22
