Mass spectrum: 1,3,5-TRIMETHYLBENZENE; EI-MS
Name: MESITYLENE
Formula: C9H12
Exact mass: 120.0939
Instrument type: EI-MS
m/z	relative intensity
50	18
51	55
52	21
53	29
59	40
63	31
65	38
77	99
78	33
79	63
89	14
91	87
103	54
104	32
105	999
106	95
115	36
117	45
118	32
119	171
120	682
121	71
