Mass spectrum: N,N-DIMETHYLTRYPTAMINE; EI-MS
Formula: C12H16N2
Exact mass: 188.13135
Instrument type: EI-MS
m/z	relative intensity
39	7
41	11
42	38
43	1
44	211
50	4
51	8
52	0
57	12
58	999
59	33
62	0
63	7
64	2
65	3
73	1
74	2
75	5
76	5
77	0
78	3
89	7
90	3
91	0
92	2
93	2
101	3
102	1
103	10
104	1
114	2
115	0
116	5
117	6
118	1
128	1
129	14
130	49
131	8
140	0
141	3
142	7
143	41
144	2
145	2
155	1
156	1
157	0
169	1
170	1
171	2
172	0
185	4
186	13
187	3
188	6
189	7
