Mass spectrum: ACETALDEHYDE BENZYL HEXYL ACETAL; EI-MS
Formula: C15H24O2
Exact mass: 236.17763
Instrument type: EI-MS
m/z	relative intensity
15	11
26	12
27	118
29	108
31	39
38	10
39	74
41	204
42	69
43	599
44	38
45	51
50	22
51	56
52	15
53	19
55	109
56	138
57	60
63	18
65	66
69	46
77	116
78	21
79	129
80	10
82	26
83	15
84	23
85	184
89	21
90	25
91	999
92	177
93	10
105	40
106	24
107	64
108	102
113	30
129	17
133	22
134	181
135	51
