Mass spectrum: 1,1-DICROTYLHYDRAZINE; EI-MS
Name: 1,1-DI(2-BUTENYL)HYDRAZINE
Formula: C8H16N2
Exact mass: 140.13135
Instrument type: EI-MS
m/z	relative intensity
28	157
29	540
30	88
31	6
32	42
38	11
39	232
40	2
41	621
42	194
43	338
44	33
45	168
50	11
51	24
52	2
53	95
54	43
55	811
56	15
57	34
58	88
59	8
67	3
68	432
69	102
70	23
71	3
80	8
81	8
82	10
83	3
84	23
85	999
86	105
97	1
99	19
108	8
125	23
140	46
141	65
