Mass spectrum: 1,2,3,4-TETRAHYDRONAPHTHALENE; EI-MS
Name: TETRALINE
Formula: C10H12
Exact mass: 132.0939
Instrument type: EI-MS
m/z	relative intensity
27	52
38	15
39	110
40	1
41	20
50	56
51	124
52	3
53	38
57.5	24
58	15
62	3
63	83
63.5	14
64	59
64.5	2
65	98
66	12
74	27
75	3
76	23
77	112
78	114
79	2
87	11
89	35
90	10
91	45
92	35
101	10
102	44
103	11
104	999
105	95
115	132
116	6
117	144
118	19
126	11
127	4
128	78
129	49
130	16
131	13
132	509
133	57
