Mass spectrum: ISOBUTYRIC ACID ISOPROPYL ESTER; EI-MS
Name: ISOPROPYL ISOBUTYRATE
Formula: C7H14O2
Exact mass: 130.09938
Instrument type: EI-MS
m/z	relative intensity
15	10
27	74
28	40
39	46
40	10
41	174
42	103
43	999
44	35
45	50
59	34
71	318
72	10
73	20
88	16
89	111
115	14
