Mass spectrum: ISOBUTYRONITRILE; EI-MS
Formula: C4H7N
Exact mass: 69.05785
Instrument type: EI-MS
m/z	relative intensity
13	15
14	23
15	104
25	1
26	120
27	200
28	315
29	2
37	40
38	50
39	133
40	6
41	122
42	999
43	35
51	4
52	90
53	90
54	230
55	1
64	11
66	12
68	469
