Mass spectrum: BETA-BROMOPROPIONIC ACID ETHYL ESTER; EI-MS
Name: ETHYL 3-BROMOPROPIONATE
Formula: C5H9BrO2
Exact mass: 179.97859
Instrument type: EI-MS
m/z	relative intensity
26	13
27	343
28	227
29	999
30	26
31	22
41	19
43	21
45	135
55	37
56	13
73	130
101	48
107	74
109	69
135	44
137	38
152	61
154	57
180	3
182	3
