Mass spectrum: PERYLENE; EI-MS
Formula: C20H12
Exact mass: 252.0939
Instrument type: EI-MS
m/z	relative intensity
74	12
84	18
99	12
100	15
111	30
112	85
113	82
123	34
124	171
125	311
126	284
127	15
222	12
223	12
224	27
225	21
247	15
248	67
249	55
250	274
251	122
252	999
253	195
254	24
