Mass spectrum: 1,2,3,4,7-PENTAMETHYLINDOLE; EI-MS
Formula: C13H17N
Exact mass: 187.1361
Instrument type: EI-MS
m/z	relative intensity
27	19
39	27
41	17
42	1
51	24
53	15
56	18
63	2
64	11
65	22
71.5	13
77	4
77.5	14
78	14
78.5	60
79	2
79.5	14
83.5	17
84.5	17
85.5	6
86	17
89	14
91	36
91.5	1
92.5	63
93	14
93.5	66
94	1
102	11
103	15
105	11
115	8
116	32
117	13
127	39
128	9
129	54
130	32
131	18
141	2
142	21
143	19
144	24
145	1
154	35
155	20
156	80
157	7
158	30
167	12
168	27
169	1
170	95
171	107
172	636
173	9
184	20
185	26
186	662
187	999
188	139
189	10
