Mass spectrum: TRANS-3-HEPTENOL; EI-MS
Formula: C7H14O
Exact mass: 114.10447
Instrument type: EI-MS
m/z	relative intensity
15	14
26	17
27	241
28	29
29	226
31	274
38	14
39	259
40	29
41	652
42	184
43	156
44	53
45	13
50	21
51	34
52	14
53	98
54	236
55	999
56	169
57	112
58	14
65	20
66	15
67	218
68	167
69	77
70	37
71	23
72	12
77	13
79	26
81	477
82	35
83	77
84	24
85	12
86	18
95	18
96	181
97	12
114	25
