Mass spectrum: 6,7-DIMETHYL-3',4'-METHYLENEDIOXYFLAVANONE; EI-MS
Name: 6,7-DIMETHYL-2-(3,4-METHYLENEDIOXYPHENYL)CHROMAN-4-ONE
Formula: C18H16O4
Exact mass: 296.10486
Instrument type: EI-MS
m/z	relative intensity
39	24
51	23
63	28
65	4
89	91
90	21
91	167
92	2
119	20
120	32
122	20
135	19
147	268
148	999
149	248
175	7
295	167
296	671
297	118
