Mass spectrum: BENZYL PHENYLACETATE; EI-MS
Formula: C15H14O2
Exact mass: 226.09938
Instrument type: EI-MS
m/z	relative intensity
39	49
41	11
51	35
63	21
65	118
77	24
89	22
90	18
91	999
92	92
108	19
226	51
