Mass spectrum: BUTYLMETHYLSILANE (METHYL-D3); EI-MS
Formula: C5H14Si
Exact mass: 102.08648
Instrument type: EI-MS
m/z	relative intensity
29	11
41	36
45	28
46	31
47	66
48	451
49	29
50	13
55	20
56	183
57	27
58	31
59	62
61	31
62	158
63	13
74	19
75	251
76	999
77	113
78	38
85	12
88	29
103	105
104	40
105	23
106	3
