Mass spectrum: 4-AMINOANTIPYRIN; EI-MS
Formula: C11H13N3O
Exact mass: 203.10586
Instrument type: EI-MS
m/z	relative intensity
39	49
40	29
41	39
42	31
43	34
44	39
51	79
52	3
53	19
54	69
55	39
56	999
57	639
58	19
77	139
82	5
83	269
84	649
85	39
91	9
92	29
93	119
103	24
104	2
109	29
119	104
201	39
202	7
203	439
204	39
