Mass spectrum: TRANS-CROTONYL ALCOHOL; EI-MS
Name: TRANS-BUT-2-EN-1-OL
Formula: C4H8O
Exact mass: 72.05751
Instrument type: EI-MS
m/z	relative intensity
15	37
26	77
27	355
28	47
29	490
30	18
31	261
37	41
38	79
39	442
40	53
41	299
42	68
43	313
44	98
45	41
50	54
51	47
53	148
54	84
55	97
57	999
58	36
69	28
71	70
72	302
73	14
