Mass spectrum: 1-CHLOROETHYLBENZENE; EI-MS
Formula: C8H9Cl
Exact mass: 140.03928
Instrument type: EI-MS
m/z	relative intensity
77	48
78	24
79	77
103	61
104	85
105	999
106	93
125	53
127	19
140	205
141	19
142	72
