Mass spectrum: 2,4-DIMETHYLTHIAZOLE; EI-MS
Formula: C5H7NS
Exact mass: 113.02992
Instrument type: EI-MS
m/z	relative intensity
26	40
27	87
29	77
30	2
33	10
34	16
36	16
37	2
38	44
39	202
40	177
41	3
42	103
43	10
45	322
46	4
47	21
50	12
51	18
52	2
53	18
54	15
55	25
56	2
57	35
58	36
59	50
60	1
64	12
65	13
66	13
67	2
68	36
69	109
70	39
71	91
72	889
73	102
74	51
75	1
77	14
78	24
79	12
85	2
86	12
91	20
112	12
113	999
114	83
115	62
127	18
