Mass spectrum: METHYL LAURATE; EI-MS
Name: METHYL DODECANOATE
Formula: C13H26O2
Exact mass: 214.19328
Instrument type: EI-MS
m/z	relative intensity
39	26
40	8
41	291
42	61
43	299
44	10
45	12
53	9
54	13
55	197
56	45
57	120
58	7
59	73
60	3
61	2
67	14
68	10
69	85
70	17
71	26
72	2
73	16
74	999
75	131
76	7
79	4
81	10
82	5
83	38
84	23
85	15
87	450
88	39
89	3
95	8
96	4
97	22
98	15
99	3
101	32
102	4
109	3
111	7
112	3
115	19
116	5
129	29
130	4
140	4
143	48
144	5
157	6
171	33
172	4
183	24
184	3
185	10
214	28
215	4
