Mass spectrum: 4'-ACETOAMINO-5,7-DIMETHYLFLAVANONE; EI-MS
Name: 2-(4-ACETAMIDOPHENYL)-5,7-DIMETHYLCHROMAN-4-ONE
Formula: C19H19NO3
Exact mass: 309.13649
Instrument type: EI-MS
m/z	relative intensity
39	28
43	249
51	21
65	7
77	63
91	290
92	56
93	5
106	232
107	22
117	34
118	16
119	999
120	249
148	946
149	58
150	44
161	664
162	72
175	6
224	22
291	20
308	56
309	57
310	108
