Mass spectrum: ISOBUTYL2-FURYLACRYLATE; EI-MS
Formula: C11H14O3
Exact mass: 194.09429
Instrument type: EI-MS
m/z	relative intensity
29	73
39	20
41	123
55	69
56	60
57	285
64	19
65	342
66	188
68	20
81	69
82	121
92	66
93	129
94	640
95	44
96	20
98	20
109	20
110	341
111	20
121	999
122	189
123	29
138	951
139	239
140	18
194	463
195	80
