Mass spectrum: ISOBUTYLAMINE; EI-MS
Formula: C4H11N
Exact mass: 73.08915
Instrument type: EI-MS
m/z	relative intensity
27	38
28	79
29	22
30	999
31	19
39	48
41	69
42	16
43	14
55	19
56	21
58	18
73	86
