Mass spectrum: 2-METHYLHEPTANE; EI-MS
Name: ISOOCTANE
Formula: C8H18
Exact mass: 114.14085
Instrument type: EI-MS
m/z	relative intensity
27	37
28	13
29	80
39	36
41	198
42	10
43	176
55	26
56	293
57	999
58	43
99	37
