Mass spectrum: 2,6-DI(ALPHA-METHYLBENZYL(5D))PHENOL; EI-MS
Formula: C22H22O
Exact mass: 302.16707
Instrument type: EI-MS
m/z	relative intensity
96	90
108	64
109	96
110	21
169	116
170	104
188	339
189	8
202	112
213	146
214	430
215	13
227	95
228	91
229	133
296	12
297	999
298	259
312	592
313	195
