Mass spectrum: PARA-NITROBENZOYL CHLORIDE; EI-MS
Formula: C7H4ClNO3
Exact mass: 184.98797
Instrument type: EI-MS
m/z	relative intensity
28	28
30	20
35	30
36	345
37	39
38	131
39	21
44	14
49	12
50	172
51	35
52	12
62	10
63	24
64	27
65	12
73	17
74	68
75	167
76	251
77	32
92	64
103	223
104	247
105	16
111	25
113	8
120	52
121	10
150	999
151	79
185	6
