Mass spectrum: TETRAHYDRO-2-PYRONE; EI-MS
Name: TETRAHYDROPYRAN-2-ONE
Formula: C5H8O2
Exact mass: 100.05243
Instrument type: EI-MS
m/z	relative intensity
37	21
38	35
39	220
41	83
42	999
43	88
44	123
45	6
47	6
48	10
50	17
51	2
53	17
54	13
55	189
56	70
57	34
68	8
70	151
71	3
73	9
75	8
76	9
81	1
83	31
85	19
86	6
99	1
100	241
101	14
