Mass spectrum: PARA-BETA-BIS(TRIMETHYLSILYL)OXY-CINNAMICACID TRIMETHYLSILYL ESTER; EI-MS
Name: TRIMETHYLSILYL BETA,PARA-BIS(TRIMETHYLSILOXY)CINNAMATE
Formula: C18H32O4Si3
Exact mass: 396.16084
Instrument type: EI-MS
m/z	relative intensity
45	147
73	635
74	58
75	8
77	45
147	999
148	136
149	7
325	223
326	73
381	198
382	7
383	22
396	22
