Mass spectrum: 2-PHENYL-1,2,3,4-TETRAHYDRO-1-NAPHTHOL (2D); EI-MS
Name: 1-HYDROXY-2-PHENYLTETRALIN (2D)
Formula: C16H16O
Exact mass: 224.12012
Instrument type: EI-MS
m/z	relative intensity
51	37
63	17
65	64
77	8
78	40
79	14
89	21
90	1
91	411
92	95
103	33
104	7
105	70
115	39
119	555
120	999
121	157
128	30
133	73
146	2
206	284
207	81
224	165
225	68
