Mass spectrum: DIPHENYLPYRALINE; EI-MS
Formula: C19H23NO
Exact mass: 281.17796
Instrument type: EI-MS
m/z	relative intensity
69	9
70	159
71	39
72	1
77	44
78	19
79	14
80	1
81	4
82	29
83	19
84	2
85	9
94	19
95	9
96	10
97	79
98	319
99	999
100	7
105	34
114	409
115	49
128	2
149	9
150	4
151	9
152	8
153	24
163	9
164	14
165	13
166	59
167	274
168	89
169	1
267	14
281	14
282	14
283	7
