Mass spectrum: PARA-METHYLCINNAMIC ACID TRIMETHYLSILYL ESTER; EI-MS
Name: TRIMETHYLSILYL PARA-METHYLCINNAMATE
Formula: C13H18O2Si
Exact mass: 234.10761
Instrument type: EI-MS
m/z	relative intensity
45	75
47	81
73	151
75	41
77	93
91	151
105	75
115	41
117	279
145	982
146	69
149	19
159	244
175	808
176	145
219	999
220	180
234	325
