Mass spectrum: ETHYL 2-ETHOXY-2,4-DIPHENYL-2H-1-BENZOPYRAN-3-CARBOXYLATE; EI-MS
Formula: C26H24O4
Exact mass: 400.16746
Instrument type: EI-MS
m/z	relative intensity
12	1
13	1
14	2
15	1
16	1
17	2
18	6
19	0
24	1
25	2
26	12
27	5
28	34
29	140
30	4
31	3
32	1
37	1
38	1
39	2
40	1
41	2
42	2
43	1
44	1
45	8
46	3
49	0
50	8
51	42
52	5
53	0
55	3
59	1
61	1
62	0
63	13
64	3
65	6
66	0
67	1
69	1
73	1
74	1
75	10
76	20
77	654
78	1
79	9
80	1
81	1
82	0
83	1
86	2
87	5
88	1
89	11
90	2
91	7
92	0
93	2
94	1
95	1
96	0
97	1
98	2
99	3
100	0
101	11
102	6
103	3
104	1
105	500
106	87
107	7
108	0
109	1
110	1
111	2
112	0
113	22
114	5
115	15
116	0
117	1
118	1
119	3
120	0
121	6
122	2
123	3
124	1
125	13
126	34
127	11
128	1
129	55
130	5
131	2
132	0
133	5
134	4
135	2
136	0
137	4
138	5
139	29
140	1
141	8
142	2
145	2
146	0
147	2
148	1
149	4
150	1
151	34
152	37
153	13
154	1
155	15
156	1
157	1
161	0
162	5
163	48
164	36
165	2
166	33
167	5
168	2
169	0
170	1
171	1
172	3
173	0
174	3
175	12
176	56
177	4
178	23
179	5
180	2
181	2
182	3
183	1
186	1
187	1
188	3
189	15
190	4
191	0
192	5
193	33
194	44
195	1
196	1
197	6
198	2
199	0
200	7
201	5
202	13
203	1
204	2
205	36
206	7
207	1
208	1
209	2
210	1
211	0
212	2
213	13
214	7
215	0
216	3
217	1
218	2
219	0
220	6
221	227
222	38
223	1
224	8
225	7
226	26
227	1
228	7
229	3
230	1
231	0
232	1
233	6
234	2
235	0
236	2
237	21
238	24
239	1
240	17
241	24
242	7
243	0
244	2
251	32
252	80
253	4
254	12
255	12
256	2
257	0
258	1
259	1
263	3
264	0
265	9
266	11
267	6
268	2
269	1
270	8
271	4
279	2
280	8
281	133
282	42
283	6
284	13
285	2
288	1
293	0
294	1
295	3
296	3
297	9
298	31
299	355
300	77
301	1
307	1
308	2
309	18
310	1
311	6
312	2
313	1
323	29
324	62
325	38
326	10
327	82
328	210
329	30
330	3
341	4
342	13
343	4
344	1
353	0
354	6
355	999
356	273
357	4
358	5
359	3
360	1
371	0
372	1
386	3
387	12
388	0
389	1
399	1
400	83
401	2
402	4
