Mass spectrum: 3,8-DIMETHYLTRICYCLO(5.3.1.0(3,8))UNDECANE-2,6-DIONE; EI-MS
Formula: C13H18O2
Exact mass: 206.13068
Instrument type: EI-MS
m/z	relative intensity
39	408
41	494
42	126
43	148
51	121
53	323
55	624
65	169
67	383
69	128
77	390
78	111
79	536
80	160
81	276
82	140
91	377
93	425
94	333
95	499
96	526
97	418
98	150
105	183
107	392
108	235
109	312
110	424
111	429
119	119
121	333
122	291
123	348
124	322
135	164
136	136
138	581
145	179
163	326
178	26
206	999
207	249
