Mass spectrum: 1,3,5-CYCLOHEXANETRIOL; EI-MS
Formula: C6H12O3
Exact mass: 132.07864
Instrument type: EI-MS
m/z	relative intensity
42	420
43	613
44	840
45	100
70	568
73	999
96	330
114	45
132	48
