Mass spectrum: CHLOROMETHANE; EI-MS
Formula: CH3Cl
Exact mass: 49.99233
Instrument type: EI-MS
m/z	relative intensity
35	84
37	30
47	119
48	5
49	133
50	999
51	46
52	342
