Mass spectrum: 4-METHYLPENTANOL; EI-MS
Name: ISOHEXANOL
Formula: C6H14O
Exact mass: 102.10447
Instrument type: EI-MS
m/z	relative intensity
15	19
26	12
27	210
28	34
29	165
31	260
39	169
40	25
41	640
42	421
43	501
44	20
45	35
53	22
55	118
56	999
57	109
59	12
60	13
67	10
69	404
70	21
83	14
84	42
