Mass spectrum: BIS(2,2,6,6-TETRAMETHYL-4-PIPERIDINYL)SEBACATE; EI-MS
Formula: C28H52N2O4
Exact mass: 480.39271
Instrument type: EI-MS
m/z	relative intensity
41	26
42	29
55	35
58	213
124	999
125	97
140	106
342	24
