Mass spectrum: CARANE; EI-MS
Name: 3,7,7-TRIMETHYLBICYCLO(4.1.0)HEPTANE
Formula: C10H18
Exact mass: 138.14085
Instrument type: EI-MS
m/z	relative intensity
41	45
54	15
55	116
56	16
57	32
69	105
70	16
82	261
83	51
93	25
94	93
95	999
96	172
97	14
110	17
124	27
139	32
