Mass spectrum: (Z)-1,1',2,2',3,3',4,4'-OCTAHYDRO-4,4'-BIPHENANTHYLIDENE; EI-MS
Formula: C28H24
Exact mass: 360.1878
Instrument type: EI-MS
m/z	relative intensity
17	15
18	41
28	10
29	2
34	11
40	15
42	13
115	1
128	11
138	24
141	45
144	5
151	126
153	42
154	28
155	3
157	124
165	150
166	120
169	6
180	244
190	72
192	45
194	2
204	130
218	106
276	19
289	5
302	134
316	142
331	173
338	3
342	24
344	37
360	999
