Mass spectrum: 4-CHLOROPHENYL PHENYL ETHER; EI-MS
Formula: C12H9ClO
Exact mass: 204.03419
Instrument type: EI-MS
m/z	relative intensity
50	103
51	203
62	32
63	9
64	24
65	53
70	51
73	5
74	53
75	127
76	29
77	29
78	22
84	38
99	61
101	2
111	32
115	127
128	34
139	7
140	22
141	500
142	72
168	8
169	115
175	27
176	64
178	3
204	999
205	120
206	369
207	47
