Mass spectrum: 3-METHOXY-3-PHENYLPROPIOPHENONE; EI-MS
Formula: C16H16O2
Exact mass: 240.11503
Instrument type: EI-MS
m/z	relative intensity
40	14
50	32
51	127
52	15
63	16
65	22
75	15
76	25
77	553
78	84
89	17
91	104
102	21
103	111
104	91
105	961
106	90
121	999
122	85
130	21
131	62
179	23
207	158
208	155
209	29
225	359
226	62
240	41
