Mass spectrum: BENZYL ACETATE; EI-MS
Formula: C9H10O2
Exact mass: 150.06808
Instrument type: EI-MS
m/z	relative intensity
14	10
15	68
27	22
29	19
38	22
39	125
41	24
42	19
43	564
44	14
45	11
50	72
51	182
52	37
53	15
62	23
63	77
64	20
65	171
74	13
75	11
76	13
77	224
78	57
79	251
80	20
89	129
90	422
91	710
92	53
105	45
107	179
108	999
109	76
150	327
151	26
