Mass spectrum: ETHANOL; EI-MS
Formula: C2H6O
Exact mass: 46.04186
Instrument type: EI-MS
m/z	relative intensity
14	26
15	50
19	39
26	49
27	180
28	55
29	119
30	51
31	999
32	10
42	30
43	85
45	496
46	182
47	14
