Mass spectrum: 2,3-BENZPHENANTHRENE; EI-MS
Formula: C18H12
Exact mass: 228.0939
Instrument type: EI-MS
m/z	relative intensity
50	10
51	12
63	22
74	19
75	50
76	41
87	50
88	110
99	43
100	175
101	240
111	22
112	180
113	389
114	471
115	12
200	29
201	14
202	33
224	62
225	53
226	257
227	101
228	999
229	195
230	19
