Mass spectrum: DIETHYL ETHER; EI-MS
Name: 1,1'-OXYBISETHANE
Formula: C4H10O
Exact mass: 74.07316
Instrument type: EI-MS
m/z	relative intensity
15	31
17	12
18	72
19	24
26	23
27	179
28	82
29	482
30	14
31	999
41	117
43	66
44	38
45	349
59	418
60	10
73	39
74	256
75	13
