Mass spectrum: MALEIC ACID; EI-MS
Formula: C4H4O4
Exact mass: 116.01096
Instrument type: EI-MS
m/z	relative intensity
12	29
13	30
14	32
17	13
18	607
24	28
25	120
26	91
27	49
28	91
29	40
32	2
36	23
37	31
41	65
42	3
44	62
45	45
52	32
53	11
54	999
55	41
73	35
77	2
96	35
98	522
99	23
105	22
