Mass spectrum: METHYL 4-HYDROXYPHENYLACETATE; EI-MS
Formula: C9H10O3
Exact mass: 166.06299
Instrument type: EI-MS
m/z	relative intensity
53	13
78	40
107	999
108	74
166	230
