Mass spectrum: PHENYLACETONE; EI-MS
Formula: C9H10O
Exact mass: 134.07316
Instrument type: EI-MS
m/z	relative intensity
15	31
27	16
38	16
39	122
41	18
42	11
43	999
44	17
50	25
51	64
52	15
62	21
63	71
64	16
65	167
77	12
89	46
90	17
91	551
92	182
134	177
135	14
