Mass spectrum: 1,2,3-TRIMETHOXY-4-PHENYLBUTANE; EI-MS
Formula: C13H20O3
Exact mass: 224.14124
Instrument type: EI-MS
m/z	relative intensity
39	107
41	258
42	93
43	32
45	819
46	19
47	16
50	2
51	17
52	12
53	14
55	5
56	35
57	162
58	289
59	37
60	17
63	19
64	18
65	6
66	10
67	11
68	10
69	2
70	9
71	74
72	27
73	8
74	15
75	999
76	35
77	5
78	12
79	12
83	10
84	1
85	36
87	96
88	68
89	6
90	15
91	321
92	39
93	2
96	9
98	15
99	19
100	2
101	189
102	22
103	258
104	3
105	85
106	11
107	14
114	3
115	71
116	27
117	70
118	1
119	17
120	15
121	27
122	1
127	10
128	12
129	25
130	1
131	14
132	12
133	142
134	18
135	689
136	66
143	11
145	0
147	267
148	32
149	11
160	1
165	47
166	18
172	8
173	1
192	86
193	14
