Mass spectrum: OXYPHENBUTAZONE 4-HYDROXYPHENYLBUTAZONE; EI-MS
Formula: C19H20N2O3
Exact mass: 324.14739
Instrument type: EI-MS
m/z	relative intensity
32	111
39	137
41	169
43	4
51	57
52	51
53	11
55	24
64	111
65	170
66	21
77	31
79	1
80	9
91	151
92	5
93	999
94	98
108	67
109	79
119	277
120	91
121	68
135	15
148	184
149	109
162	250
163	0
164	13
199	343
200	41
206	14
324	213
326	82
