Mass spectrum: METHYL 9-DODECANOATE; EI-MS
Formula: C13H24O2
Exact mass: 212.17763
Instrument type: EI-MS
m/z	relative intensity
41	999
43	477
55	862
59	261
69	500
74	590
83	285
84	229
96	262
97	238
110	109
111	95
138	123
163	61
180	104
212	73
