Mass spectrum: HEXANOIC ACID ISOPROPYL ESTER; EI-MS
Formula: C9H18O2
Exact mass: 158.13068
Instrument type: EI-MS
m/z	relative intensity
15	21
27	192
28	35
29	116
31	12
39	90
40	19
41	278
42	147
43	999
44	34
45	33
55	73
56	77
57	39
59	207
60	521
61	88
69	43
70	34
71	201
72	11
73	154
74	24
75	11
87	75
89	22
97	15
99	572
100	37
102	227
103	14
116	138
117	313
118	20
143	44
158	12
