Mass spectrum: 7-METHOXY-5-METHYL-1,2,3,4-TETRAHYDROPYRIMIDO(1,6-A)INDOLE; EI-MS
Formula: C13H16N2O
Exact mass: 216.12626
Instrument type: EI-MS
m/z	relative intensity
51	10
55	32
57	21
69	1
77	11
81	13
115	46
130	6
131	138
143	79
144	48
158	6
159	87
172	81
173	42
174	999
175	140
186	62
187	330
188	8
215	52
216	525
