Mass spectrum: 7-METHOXY-2,3-DIMETHYL-6-(2-NITROVINYL)INDOLE; EI-MS
Formula: C13H14N2O3
Exact mass: 246.10044
Instrument type: EI-MS
m/z	relative intensity
44	999
45	480
55	80
56	4
57	75
60	51
69	47
85	1
91	16
97	11
98	14
103	1
104	12
115	14
145	27
149	1
156	14
160	33
170	12
183	1
184	38
185	12
196	26
197	7
198	17
213	10
246	146
247	18
