Mass spectrum: ACETALDEHYDE DIPENTYL ACETAL; EI-MS
Formula: C12H26O2
Exact mass: 202.19328
Instrument type: EI-MS
m/z	relative intensity
27	136
29	208
31	66
39	75
41	261
42	197
43	793
44	47
45	315
53	12
55	171
56	19
57	21
58	11
61	12
69	19
70	90
71	999
72	58
97	22
99	40
115	663
116	54
117	35
187	86
