Mass spectrum: CHLORODIMETHYLPHENYLSILANE; EI-MS
Formula: C8H11ClSi
Exact mass: 170.03185
Instrument type: EI-MS
m/z	relative intensity
50	11
51	25
53	18
63	107
65	49
77	13
78	23
79	17
91	111
92	10
93	34
103	16
105	30
119	21
135	35
155	999
156	132
157	366
158	48
159	15
170	186
171	29
172	84
