Mass spectrum: 1,3,5-TRIMETHYL-2,4,6-TRIS-(3,5-DI-TERT-BUTYL-4-HYDROXY-BENZYL)BENZENE; EI-MS
Formula: C54H78O3
Exact mass: 774.5951
Instrument type: EI-MS
m/z	relative intensity
29	26
41	93
57	999
58	30
147	29
157	60
163	109
203	105
219	307
220	51
380	32
387	34
511	109
512	28
774	385
775	209
777	76
