Mass spectrum: 1-HEXANOL; EI-MS
Formula: C6H14O
Exact mass: 102.10447
Instrument type: EI-MS
m/z	relative intensity
37	4
38	8
39	222
40	55
41	589
42	480
43	652
44	59
45	36
50	7
51	11
52	4
53	34
54	15
55	529
56	999
57	85
58	1
59	1
65	1
67	11
68	1
69	282
70	24
71	10
73	10
83	8
84	42
