Mass spectrum: METHYL ISOPROPYL KETONE; EI-MS
Name: 3-METHYL-2-BUTANONE
Formula: C5H10O
Exact mass: 86.07316
Instrument type: EI-MS
m/z	relative intensity
15	37
27	74
28	19
29	34
39	31
41	126
42	38
43	999
44	31
45	13
57	37
71	55
86	157
87	15
