Mass spectrum: TRIMETHYLENE OXIDE; EI-MS
Formula: C3H6O
Exact mass: 58.04186
Instrument type: EI-MS
m/z	relative intensity
25	14
26	149
27	209
28	999
29	206
30	47
31	72
39	26
41	14
42	15
43	12
44	27
57	114
58	275
59	22
