Mass spectrum: 1,4-DICHLOROBENZENE; EI-MS
Formula: C6H4Cl2
Exact mass: 145.96901
Instrument type: EI-MS
m/z	relative intensity
36	39
37	26
49	35
50	209
51	57
55	24
61	19
73	79
74	179
75	375
76	40
84	35
85	44
110	33
111	530
112	35
113	165
146	999
147	58
148	621
149	34
150	88
