Mass spectrum: ETHYL (4R*,5R*)-(E)-5-HYDROXY-4-(TERT-BUTYLDIMETHYLSILYL)OXY-2-HEXENOATE; EI-MS
Formula: C14H28O4Si
Exact mass: 288.17569
Instrument type: EI-MS
m/z	relative intensity
26	16
27	35
28	374
29	10
30	4
31	40
32	104
39	5
40	25
41	172
42	15
43	22
44	133
45	47
46	13
53	1
54	37
55	201
56	85
57	5
58	25
59	15
66	11
67	4
68	6
69	17
71	8
73	76
74	47
75	999
76	44
77	3
81	23
82	22
83	128
84	8
85	20
94	9
95	32
97	4
99	104
103	136
105	9
110	2
111	547
112	65
113	265
114	2
115	178
116	35
117	24
121	2
125	16
127	37
129	46
130	2
131	175
132	26
133	16
140	2
141	167
142	83
143	27
145	2
149	46
155	22
156	11
157	13
158	24
159	213
160	37
161	2
167	10
169	9
171	52
172	1
173	15
183	17
185	276
186	5
187	237
188	27
189	17
198	23
199	97
200	34
201	12
205	4
213	45
214	5
215	63
216	2
217	4
227	15
229	21
231	14
232	25
243	77
244	243
245	4
246	17
