Mass spectrum: 2-AMINO-2-METHYLPROPANOL; EI-MS
Formula: C4H11NO
Exact mass: 89.08406
Instrument type: EI-MS
m/z	relative intensity
15	27
18	153
27	21
28	46
29	40
30	60
31	27
39	28
41	145
42	82
43	43
55	19
56	83
57	40
58	999
59	48
70	13
72	57
74	31
