Mass spectrum: ACRYLIC ACID 2-ETHYLHEXYL ESTER; EI-MS
Name: 2-PROPENOIC ACID 2-ETHYLHEXYL ESTER
Formula: C11H20O2
Exact mass: 184.14633
Instrument type: EI-MS
m/z	relative intensity
26	18
27	337
28	32
29	200
31	20
39	71
40	12
41	345
42	137
43	266
44	10
53	25
54	26
55	928
56	259
57	527
58	46
67	18
68	26
69	151
70	999
71	134
73	101
81	11
82	44
83	249
84	134
85	94
86	64
87	19
97	28
98	34
111	24
112	327
113	29
