Mass spectrum: 3,1-BENZOXAZEPINE-2-CARBONITRILE; EI-MS
Formula: C10H6N2O
Exact mass: 170.04801
Instrument type: EI-MS
m/z	relative intensity
170	370
143	100
142	999
116	80
115	690
114	120
90	350
89	680
88	150
64	270
63	630
62	300
