Mass spectrum: N-(TERT-BUTYLDIMETHYLSILYL)-N-ETHYLANILINE; EI-MS
Formula: C14H25NSi
Exact mass: 235.17563
Instrument type: EI-MS
m/z	relative intensity
43	34
45	27
51	14
57	12
58	17
59	247
60	20
73	89
74	10
75	23
77	43
84	15
104	13
106	31
118	71
119	36
120	75
121	44
134	19
135	22
149	26
150	26
162	12
164	11
176	14
178	999
179	164
180	47
220	17
235	57
236	13
