Mass spectrum: DIETHYLENE GLYCOL MONOETHYL ETHER ACETATE; EI-MS
Formula: C8H16O4
Exact mass: 176.10486
Instrument type: EI-MS
m/z	relative intensity
28	25
29	69
31	358
41	37
42	10
43	782
44	126
45	567
46	14
56	11
57	19
58	26
59	745
60	29
61	92
70	23
71	16
72	999
73	320
74	53
75	14
86	31
87	922
88	51
89	71
101	48
103	60
104	25
105	11
111	10
112	42
113	18
116	96
117	30
129	64
132	45
133	12
147	24
