Mass spectrum: ISOPENTYL DECANOATE; EI-MS
Name: ISOPENTYL CAPRATE
Formula: C15H30O2
Exact mass: 242.22458
Instrument type: EI-MS
m/z	relative intensity
41	16
42	31
43	205
55	83
57	42
60	17
61	12
69	25
70	999
71	307
72	14
73	22
84	11
85	19
115	12
129	12
155	50
172	10
173	21
242	1
