Mass spectrum: DIETHYL SUCCINATE; EI-MS
Formula: C8H14O4
Exact mass: 174.08921
Instrument type: EI-MS
m/z	relative intensity
26	11
27	84
29	175
31	19
42	13
43	28
45	71
55	143
56	83
57	27
73	134
74	88
75	17
100	53
101	999
102	127
103	10
128	157
129	697
130	54
147	20
