Mass spectrum: 2-PHENYL-3-BENZOYL-1-AZIRINE; EI-MS
Formula: C15H11NO
Exact mass: 221.08406
Instrument type: EI-MS
m/z	relative intensity
222	140
221	790
220	110
193	120
166	230
165	370
144	150
116	240
105	999
90	150
89	360
77	840
63	210
51	420
50	150
39	150
