Mass spectrum: TOLUENE; EI-MS
Name: METHYLBENZENE
Formula: C7H8
Exact mass: 92.0626
Instrument type: EI-MS
m/z	relative intensity
38	13
39	84
40	10
41	12
45	23
45.5	10
46	13
50	23
51	50
52	15
62	17
63	53
64	12
65	117
66	12
89	33
90	23
91	999
92	870
93	70
