Mass spectrum: 3,7,11,15-TETRAMETHYL-1,6,10,14-HEXADECATETRAEN-3-OL; EI-MS
Name: LINALYL LINALOOL
Formula: C20H34O
Exact mass: 290.26097
Instrument type: EI-MS
m/z	relative intensity
27	55
29	98
32	8
39	4
41	641
42	94
43	559
44	2
45	78
53	94
55	305
57	8
65	148
67	195
68	78
69	999
70	78
71	234
73	47
77	6
79	153
80	70
81	528
82	9
83	122
85	102
91	125
92	3
93	355
94	78
95	448
96	5
97	84
98	86
99	98
105	13
106	94
107	417
108	94
109	36
110	86
111	117
113	61
119	16
120	23
121	258
122	108
123	47
124	109
125	161
133	183
134	3
135	173
136	92
137	141
142	6
143	141
145	127
147	122
148	8
149	102
151	138
159	20
161	8
163	127
175	117
177	125
187	2
189	133
190	109
191	59
203	38
204	86
229	109
272	102
