Mass spectrum: 4(8)-PARA-MENTHEN-3-YL ACETATE; EI-MS
Formula: C12H20O2
Exact mass: 196.14633
Instrument type: EI-MS
m/z	relative intensity
13	30
14	120
15	20
16	6
17	270
25	30
26	180
27	59
28	120
31	225
35	10
36	2
37	290
38	40
39	280
40	3
41	520
42	200
43	85
50	2
51	120
52	60
53	160
54	2
55	170
56	10
57	5
58	25
59	10
60	80
63	5
64	3
65	10
66	120
67	50
68	14
69	155
70	20
71	5
72	1
73	5
74	5
77	290
78	6
79	999
80	130
81	110
82	2
89	10
91	300
92	80
93	70
94	240
95	70
96	10
104	2
105	25
106	130
107	30
108	59
109	140
110	10
115	5
117	1
119	20
120	5
121	610
122	6
123	10
134	10
135	600
137	2
138	20
