Mass spectrum: DIPENTL ETHER; EI-MS
Formula: C10H22O
Exact mass: 158.16707
Instrument type: EI-MS
m/z	relative intensity
27	117
28	34
29	180
31	27
39	63
40	14
41	227
42	204
43	898
44	32
45	29
53	11
55	130
56	17
57	15
58	13
68	10
69	196
70	494
71	999
72	56
87	23
89	24
101	75
115	14
158	44
