Mass spectrum: 1-(P-TOLUENESULFONYL)-5-FLUOROURACIL; EI-MS
Formula: C11H9FN2O4S
Exact mass: 284.02671
Instrument type: EI-MS
m/z	relative intensity
39	100
41	50
50	30
51	1
58	60
63	90
64	30
65	3
77	50
87	30
89	100
90	1
91	999
92	30
107	50
108	0
130	30
139	50
148	30
155	9
156	140
157	100
176	20
177	0
220	270
221	50
284	100
285	20
