Mass spectrum: 3-METHYL-3-OCTYL ACETATE; EI-MS
Name: 1-ETHYL-1-METHYLHEXYL ACETATE
Formula: C11H22O2
Exact mass: 186.16198
Instrument type: EI-MS
m/z	relative intensity
15	27
27	94
28	20
29	172
39	70
41	211
42	40
43	999
44	23
45	41
53	23
54	12
55	315
56	37
57	97
58	35
59	23
67	14
69	78
70	216
71	134
72	16
73	501
74	20
83	62
84	12
85	36
96	12
97	98
98	15
115	604
116	34
126	71
127	24
129	73
130	17
157	38
