Mass spectrum: NITROBENZEN; EI-MS
Formula: C6H5NO2
Exact mass: 123.03203
Instrument type: EI-MS
m/z	relative intensity
27	42
30	111
37	28
38	39
39	77
50	190
51	551
52	29
65	123
74	65
75	40
76	31
77	999
78	78
93	124
123	543
124	43
