Mass spectrum: 1-(CIS-3-HYDROXYTETRAHYDRO-2-FURANYL)-5-FLUOROURACIL; EI-MS
Formula: C8H9FN2O4
Exact mass: 216.05463
Instrument type: EI-MS
m/z	relative intensity
39	50
40	50
41	210
42	0
43	100
44	100
45	60
57	4
58	210
59	130
60	100
69	2
70	40
71	60
86	80
87	999
88	170
100	20
114	120
116	1
130	120
131	150
159	120
170	0
198	80
216	230
217	70
