Mass spectrum: PROPYL BUTYRATE; EI-MS
Formula: C7H14O2
Exact mass: 130.09938
Instrument type: EI-MS
m/z	relative intensity
15	32
26	27
27	411
28	59
29	124
30	11
31	54
38	13
39	168
40	21
41	370
42	248
43	999
44	32
45	20
55	24
57	15
59	61
60	142
61	86
71	923
72	38
73	91
88	31
89	477
90	18
101	32
102	28
