Mass spectrum: N-UNDECANONITRILE; EI-MS
Formula: C11H21N
Exact mass: 167.1674
Instrument type: EI-MS
m/z	relative intensity
27	354
28	103
29	520
30	64
39	233
40	68
41	999
42	273
43	896
44	86
51	24
52	25
53	80
54	484
55	614
56	260
57	629
58	48
65	25
66	31
67	71
68	130
69	519
70	325
71	158
79	69
80	27
81	87
82	612
83	549
84	104
85	80
93	44
95	65
96	735
97	921
98	112
107	34
109	22
110	622
111	331
112	52
122	21
124	488
125	94
126	21
138	235
139	45
152	44
166	36
