Mass spectrum: 3-TERT-BUTYLMERCAPTO-4-PICOLINE; EI-MS
Formula: C10H15NS
Exact mass: 181.09252
Instrument type: EI-MS
m/z	relative intensity
29	200
39	170
41	240
45	9
51	50
53	180
57	590
65	0
79	60
80	60
97	70
124	1
125	999
126	120
127	50
181	2
182	20
