Mass spectrum: 5,9-DIMETHYL-4,8-DECADIENYL ACETATE(Z); EI-MS
Formula: C14H24O2
Exact mass: 224.17763
Instrument type: EI-MS
m/z	relative intensity
39	30
41	300
43	258
53	57
55	83
67	160
68	132
69	999
70	60
77	23
79	70
80	22
81	164
82	53
91	22
93	116
94	80
95	500
96	175
117	42
118	63
119	62
121	147
122	22
123	60
136	20
149	96
164	57
181	190
