Mass spectrum: 1,1,1-TRICHLOROETHANE; EI-MS
Formula: C2H3Cl3
Exact mass: 131.93003
Instrument type: EI-MS
m/z	relative intensity
25	37
26	118
27	75
35	9
36	27
37	33
47	38
60	10
61	512
62	69
63	163
82	2
97	999
98	32
99	609
101	10
117	107
119	102
121	33
