Mass spectrum: META-TOLUOYL CHLORIDE; EI-MS
Name: M-METHYLBENZOYL CHLORIDE
Formula: C8H7ClO
Exact mass: 154.01854
Instrument type: EI-MS
m/z	relative intensity
38	18
39	122
41	17
45	17
45.5	36
50	50
51	45
59	21
59.5	12
61	10
62	37
63	103
64	17
65	229
89	74
90	28
91	724
92	46
119	999
120	76
154	64
156	17
