Mass spectrum: PENTANEDIOIC ACID BIS(TRIMETHYLSILYL) ESTER; EI-MS
Name: DI(TRIMETHYLSILYL) GLUTARATE
Formula: C11H24O4Si2
Exact mass: 276.12131
Instrument type: EI-MS
m/z	relative intensity
43	75
45	141
55	466
73	88
74	93
75	405
97	144
129	12
147	999
148	202
149	166
158	22
204	77
233	80
261	219
262	47
