Mass spectrum: 4-BUTANOLIDE; EI-MS
Name: GAMMA-BUTYROLACTONE
Formula: C4H6O2
Exact mass: 86.03678
Instrument type: EI-MS
m/z	relative intensity
14	27
15	27
18	29
25	13
26	113
27	294
28	999
29	446
30	22
31	27
37	19
38	27
39	87
40	78
41	321
42	923
43	57
44	12
55	80
56	314
57	65
85	114
86	366
87	52
