Mass spectrum: 1-(2-DIETHYLAMINOETHOXYCARBONYL)-1-PHENYLCYCLOPENTANE; EI-MS
Formula: C18H27NO2
Exact mass: 289.20418
Instrument type: EI-MS
m/z	relative intensity
38	11
39	38
40	11
41	7
42	61
43	29
44	60
45	1
50	11
51	19
52	16
53	1
54	13
55	19
56	85
57	0
58	93
59	11
62	5
63	2
64	7
65	19
66	15
67	5
68	15
69	11
70	29
71	6
72	28
73	54
74	12
75	2
76	10
77	28
78	17
79	1
80	1
84	51
85	13
86	999
87	64
88	10
89	13
90	1
91	138
92	20
93	1
95	0
96	7
97	11
98	12
99	16
100	40
101	7
102	18
103	3
104	18
105	15
106	1
114	1
115	47
116	19
117	21
118	1
126	3
127	11
128	38
129	4
130	13
131	1
140	19
141	2
142	25
143	52
144	111
145	0
146	2
148	15
168	1
169	1
170	8
171	5
172	11
173	1
175	10
190	8
191	1
217	3
218	11
219	5
246	1
247	1
274	12
275	1
