Mass spectrum: 3'-HYDROXYACETOPHENONE; EI-MS
Formula: C8H8O2
Exact mass: 136.05243
Instrument type: EI-MS
m/z	relative intensity
15	16
26	5
27	10
37	7
38	23
39	100
40	6
42	11
43	108
44	4
50	17
51	18
52	6
53	20
55	4
60	6
61	9
62	19
63	47
64	26
65	180
66	22
74	8
75	7
76	4
77	19
78	5
79	5
92	16
93	377
94	42
121	999
122	80
123	7
135	2
136	716
137	70
138	6
