Mass spectrum: METHYL 4-TRIMETHYLSILYLMETHYL-3-CYCLOHEXENECARBOXYLATE; EI-MS
Formula: C12H22O2Si
Exact mass: 226.13891
Instrument type: EI-MS
m/z	relative intensity
59	96
61	92
71	131
72	24
73	782
74	76
75	999
76	73
77	94
79	49
85	28
91	122
92	29
93	135
94	32
110	33
115	28
117	65
119	201
121	70
125	38
127	37
135	39
136	37
141	110
143	531
144	74
145	30
149	84
151	24
155	31
156	54
165	68
167	98
168	24
169	29
183	507
184	90
185	26
193	74
211	138
212	25
226	16
