Mass spectrum: BENZYL OXALATE; EI-MS
Formula: C16H14O4
Exact mass: 270.08921
Instrument type: EI-MS
m/z	relative intensity
91	794
92	113
107	137
108	2
179	340
180	999
181	145
182	1
197	6
270	56
271	11
272	2
