Mass spectrum: 2-METHYL-1-(2-(6-METHYL-3-PYRIDYL)ETHYL)-3-PHENYLINDOLE; EI-MS
Formula: C23H22N2
Exact mass: 326.1783
Instrument type: EI-MS
m/z	relative intensity
57	13
77	10
105	17
106	2
115	21
128	10
130	11
142	1
143	11
178	26
205	28
218	3
219	21
220	999
221	147
326	250
