Mass spectrum: METHOXY ACETIC ACID METHYL ESTER; EI-MS
Name: METHYL METHOXY ACETATE
Formula: C4H8O3
Exact mass: 104.04734
Instrument type: EI-MS
m/z	relative intensity
15	179
28	11
29	126
31	24
42	42
43	48
44	20
45	999
46	18
59	33
74	236
75	51
