Mass spectrum: METHYL VALERATE; EI-MS
Formula: C6H12O2
Exact mass: 116.08373
Instrument type: EI-MS
m/z	relative intensity
15	149
26	34
27	238
29	323
30	12
31	41
38	10
39	141
41	329
42	85
43	367
44	22
45	34
53	15
55	141
56	67
57	357
58	14
59	226
73	11
74	999
75	36
85	342
86	14
87	310
88	23
101	16
