Mass spectrum: HUMULENE; EI-MS
Name: (1E,4E,8E)-2,6,6,9-TETRAMETHYL-1,4,8-CYCLOUNDECATRIENE
Formula: C15H24
Exact mass: 204.1878
Instrument type: EI-MS
m/z	relative intensity
27	89
29	76
41	258
43	106
53	123
55	115
67	127
69	54
79	169
80	344
92	187
93	999
107	166
109	138
121	343
122	110
133	41
136	66
147	185
148	49
161	47
162	13
175	12
176	9
189	30
197	6
204	121
205	24
