Mass spectrum: DICHLORODIMETHYLGERMANE; EI-MS
Formula: C2H6Cl2Ge
Exact mass: 173.90583
Instrument type: EI-MS
m/z	relative intensity
70	16
72	21
84	13
85	34
86	20
87	49
88	31
89	50
105	116
107	189
108	45
109	252
110	16
111	114
113	16
120	20
121	14
122	34
123	24
124	37
125	11
126	15
135	151
136	10
137	257
138	73
139	335
140	35
141	149
142	11
143	20
144	12
155	378
157	729
158	154
159	999
160	106
161	622
162	23
163	160
165	15
170	42
172	81
173	18
174	114
175	12
176	70
