Mass spectrum: CYCLOHEXYL AMINE; EI-MS
Formula: C6H13N
Exact mass: 99.1048
Instrument type: EI-MS
m/z	relative intensity
27	90
28	140
30	140
41	6
42	80
43	280
56	999
99	100
