Mass spectrum: P-DICHLOROBENZENE; EI-MS
Formula: C6H4Cl2
Exact mass: 145.96901
Instrument type: EI-MS
m/z	relative intensity
73	90
74	120
75	196
76	3
84	27
85	35
110	25
111	32
112	30
113	100
146	999
147	8
148	650
149	45
150	105
