Mass spectrum: 1,2-DIHYDROXYLBUTANE; EI-MS
Name: 1,2-BUTANEDIOL
Formula: C4H10O2
Exact mass: 90.06808
Instrument type: EI-MS
m/z	relative intensity
15	45
18	13
19	10
26	12
27	77
28	22
29	97
30	10
31	614
32	10
33	11
39	42
41	272
42	33
43	204
44	21
45	12
55	36
57	48
58	98
59	999
60	39
61	204
73	15
