Mass spectrum: MYRCENE; EI-MS
Name: 7-METHYL-3-METHYLENE-1,6-OCTADIENE
Formula: C10H16
Exact mass: 136.1252
Instrument type: EI-MS
m/z	relative intensity
55	23
67	57
69	520
77	78
79	102
93	581
94	106
107	29
121	49
136	40
