Mass spectrum: 2-HYDROXYMETHYLQUINOLINE; EI-MS
Formula: C10H9NO
Exact mass: 159.06841
Instrument type: EI-MS
m/z	relative intensity
39	43
50	70
51	120
63	120
75	110
76	91
77	180
101	140
102	130
115	20
116	20
129	320
130	811
142	20
143	20
158	901
159	999
160	90
161	20
