Mass spectrum: DIPROPYL ADIPATE; EI-MS
Formula: C12H22O4
Exact mass: 230.15181
Instrument type: EI-MS
m/z	relative intensity
43	676
53	22
54	215
55	52
56	34
58	69
59	47
60	8
73	49
83	96
84	44
87	12
100	88
101	150
102	20
111	25
112	36
129	369
130	25
142	19
143	25
170	31
171	999
172	9
189	22
231	301
232	25
