Mass spectrum: 2-METHYLQUINOLIN-6-OL; EI-MS
Formula: C10H9NO
Exact mass: 159.06841
Instrument type: EI-MS
m/z	relative intensity
18	95
39	143
40	32
41	5
42	48
43	48
50	63
51	8
57	63
62	39
63	95
64	9
65	79
66	63
67	84
68	5
76	79
77	127
78	48
89	8
90	32
91	48
92	95
95	8
102	48
103	95
104	48
120	7
130	794
131	317
132	48
158	8
159	999
160	111
