Mass spectrum: TETRACOSANOIC ACID BUTYL ESTER; EI-MS
Formula: C28H56O2
Exact mass: 424.42803
Instrument type: EI-MS
m/z	relative intensity
18	131
43	247
57	257
73	316
116	191
117	157
129	279
141	48
209	20
369	141
424	240
