Mass spectrum: ETHYL ACETATE; EI-MS
Formula: C4H8O2
Exact mass: 88.05243
Instrument type: EI-MS
m/z	relative intensity
14	3
15	14
26	3
27	11
28	3
29	17
31	1
42	6
43	999
44	3
45	14
61	11
70	10
73	4
88	5
