Mass spectrum: MYRTENYL ACETATE; EI-MS
Formula: C12H18O2
Exact mass: 194.13068
Instrument type: EI-MS
m/z	relative intensity
15	19
27	53
29	35
39	91
40	12
41	156
42	13
43	542
44	11
51	23
52	14
53	62
55	50
65	48
66	13
67	45
68	15
69	27
77	102
78	64
79	143
80	19
81	23
85	11
91	999
92	349
93	136
95	12
96	11
103	16
105	91
106	48
107	22
108	160
109	23
117	21
119	385
120	40
121	19
134	168
135	22
152	36
