Mass spectrum: 9-TRIMETHYLSILYLANTHRACENE; EI-MS
Formula: C17H18Si
Exact mass: 250.11778
Instrument type: EI-MS
m/z	relative intensity
43	32
44	15
45	30
53	19
73	71
75	36
76	28
77	13
88	15
89	25
93	43
95	16
103	19
104	12
109	21
110	42
116	11
118	146
125	12
150	15
151	22
152	25
153	12
165	37
176	47
177	33
178	181
179	54
180	19
181	12
189	47
190	23
191	78
192	121
193	27
195	12
202	33
203	37
204	39
205	69
206	16
208	15
212	11
215	11
216	12
217	100
218	48
219	104
220	26
221	10
231	26
233	103
234	33
235	999
236	241
237	63
250	691
251	170
252	45
