Mass spectrum: 2,2,4,4,6,6,8,8-OCTAMETHYL-1,5-DIAZA-2,4,6,8-TETRASILACYCLOOCTANE; EI-MS
Formula: C10H30N2Si4
Exact mass: 290.14861
Instrument type: EI-MS
m/z	relative intensity
59	15
73	52
74	17
100	33
114	18
116	18
130	115
131	44
170	17
172	13
186	30
187	52
188	24
189	16
203	36
242	19
243	30
258	66
259	205
260	61
261	36
275	999
276	324
277	186
278	40
