Mass spectrum: O-NITROANISOLE; EI-MS
Formula: C7H7NO3
Exact mass: 153.04259
Instrument type: EI-MS
m/z	relative intensity
50	110
51	239
52	88
53	60
62	61
63	223
64	26
65	215
74	54
76	78
77	81
78	292
79	72
80	61
92	48
93	162
95	168
106	999
107	9
108	49
123	656
124	85
153	66
154	66
