Mass spectrum: 4-DIMETHYLAMINO-2-(3-FLUOROPHENYL)PYRIMIDINE; EI-MS
Formula: C12H12FN3
Exact mass: 217.10153
Instrument type: EI-MS
m/z	relative intensity
67	40
68	24
69	11
70	1
75	28
80	16
81	84
87	1
94	28
95	98
96	6
98.5	1
100.5	11
107.5	6
108	52
108.5	7
121	52
122	390
123	17
133	1
136	9
146	52
147	42
161	1
173	259
174	171
175	37
187	1
188	832
189	98
202	497
203	6
204	5
216	25
217	999
218	129
