Mass spectrum: 2-BUTOXYETHYL ACETATE; EI-MS
Name: BUTYLCELLOSOLVE ACETATE
Formula: C8H16O3
Exact mass: 160.10994
Instrument type: EI-MS
m/z	relative intensity
29	167
41	223
42	12
43	704
44	127
45	96
55	34
56	557
57	999
58	52
61	77
70	17
71	27
72	15
73	28
74	69
85	206
86	13
87	349
88	109
100	78
