Mass spectrum: HEXANOL; EI-MS
Formula: C6H14O
Exact mass: 102.10447
Instrument type: EI-MS
m/z	relative intensity
15	15
26	20
27	246
28	47
29	245
31	339
38	10
39	163
40	35
41	460
42	429
43	606
44	47
45	33
51	10
53	21
54	29
55	526
56	999
57	90
67	11
69	265
70	24
71	15
73	13
83	12
84	74
