Mass spectrum: 1,2,3,4-TETRAHYDROQUINOLINE; EI-MS
Formula: C9H11N
Exact mass: 133.08915
Instrument type: EI-MS
m/z	relative intensity
27	49
28	45
29	41
39	2
40	76
41	11
42	19
50	6
51	131
52	56
53	23
54	1
59	19
62	18
63	46
64.5	5
65	86
65.5	90
66	32
66.5	5
67	10
74	21
75	24
77	17
78	97
79	43
89	27
90	3
91	86
92	12
101	10
102	3
103	56
104	103
105	65
106	3
115	45
116	16
117	192
118	25
119	24
128	14
129	17
130	14
131	64
132	999
133	941
134	93
