Mass spectrum: DIETHYLENE GLYCOL DIBENZOATE; EI-MS
Formula: C18H18O5
Exact mass: 314.11542
Instrument type: EI-MS
m/z	relative intensity
45	230
50	53
51	158
56	30
57	82
70	22
73	47
74	2
75	21
76	33
77	655
78	5
88	156
91	25
105	999
106	12
122	171
123	119
149	299
150	5
180	96
181	12
185	16
192	1
194	11
