Mass spectrum: 4-(PARA-HYDROXYPHENYL)2-BUTANONE; EI-MS
Formula: C10H12O2
Exact mass: 164.08373
Instrument type: EI-MS
m/z	relative intensity
15	31
27	63
28	35
38	13
39	116
40	16
41	25
43	69
44	17
50	19
51	59
52	2
53	40
55	64
63	26
65	6
66	15
77	152
78	28
79	2
91	61
93	21
94	150
103	6
107	999
108	81
119	15
120	3
121	135
122	13
149	57
163	1
164	360
165	38
