Mass spectrum: ISOPROPYLBENZENE; EI-MS
Name: CUMENE
Formula: C9H12
Exact mass: 120.0939
Instrument type: EI-MS
m/z	relative intensity
27	48
39	69
41	37
50	39
51	112
52	31
52.5	11
53	15
59	12
62	12
63	29
65	27
74	12
75	11
76	12
77	140
78	59
79	124
89	11
91	59
102	14
103	76
104	28
105	999
106	90
115	11
119	11
120	256
121	27
