Mass spectrum: 2,2-DICHLORO-1-PHENYL-2-TRIMETHYLSILYLETHANOL; EI-MS
Formula: C11H16Cl2OSi
Exact mass: 262.03475
Instrument type: EI-MS
m/z	relative intensity
43	31
44	27
45	60
51	34
65	31
73	260
74	27
75	152
77	90
79	181
91	50
93	164
95	81
102	34
105	45
107	999
108	78
119	115
137	67
155	36
172	190
174	120
179	170
180	29
183	25
226	14
