Mass spectrum: ALPHA-HIMACHALENE; EI-MS
Formula: C15H24
Exact mass: 204.1878
Instrument type: EI-MS
m/z	relative intensity
26	8
27	143
29	151
38	1
39	207
40	36
41	610
42	4
43	163
44	5
50	11
51	1
52	30
53	191
54	23
55	37
56	60
57	41
58	5
63	0
64	15
65	123
66	40
67	31
68	63
69	491
70	41
71	0
75	13
76	6
77	347
78	10
79	560
80	155
81	271
82	10
83	50
84	8
89	16
90	1
91	530
92	323
93	999
94	8
95	251
96	50
97	27
102	1
103	48
104	30
105	530
106	2
107	405
108	175
109	391
110	4
111	22
112	5
115	60
116	3
117	87
118	31
119	680
120	22
121	420
122	115
123	30
127	0
128	26
129	23
130	11
131	5
132	20
133	307
134	381
135	30
136	103
137	11
141	6
143	1
145	27
146	10
147	167
148	12
149	32
150	5
159	11
160	0
161	410
162	83
163	16
175	8
176	43
189	425
190	71
204	51
205	91
206	6
