Mass spectrum: HEXYL 2-METHYLBUTYRATE; EI-MS
Formula: C11H22O2
Exact mass: 186.16198
Instrument type: EI-MS
m/z	relative intensity
26	11
27	222
29	455
31	12
39	132
41	566
42	201
43	775
44	20
45	15
53	22
54	19
56	454
57	999
58	45
69	151
70	11
73	15
74	214
75	42
83	25
84	379
85	568
86	33
87	70
99	10
102	45
103	970
104	58
115	11
129	23
158	22
