Mass spectrum: PENTYL HYDRODISULFIDE; EI-MS
Formula: C5H12S2
Exact mass: 136.03804
Instrument type: EI-MS
m/z	relative intensity
55	120
70	72
71	999
72	7
103	265
136	747
137	72
138	108
