Mass spectrum: 2,6-DIMETHYLANILINE; EI-MS
Name: 2,6-XYLIDINE
Formula: C8H11N
Exact mass: 121.08915
Instrument type: EI-MS
m/z	relative intensity
30	57
37	12
38	39
39	192
41	57
42	100
46	22
50	78
51	127
52	120
53	93
54	52
58	54
59	96
60	84
61	16
62	38
63	43
64	61
65	100
66	41
67	17
74	15
75	17
76	31
77	405
78	208
79	206
80	67
89	38
90	24
91	279
92	83
93	127
94	33
102	28
103	139
104	74
105	57
106	999
107	97
117	18
118	48
119	32
120	636
121	955
122	87
