Mass spectrum: 3-DIMETHYLAMINOBENZOIC ACID METHYL ESTER; EI-MS
Formula: C10H13NO2
Exact mass: 179.09463
Instrument type: EI-MS
m/z	relative intensity
42	63
50	41
51	48
59	3
63	48
65	26
74	112
75	3
76	29
77	138
78	48
79	4
91	44
92	29
104	71
105	5
106	56
118	89
119	41
120	16
121	37
132	41
148	112
163	3
164	29
165	74
178	999
179	87
180	89
