Mass spectrum: 8ALPHA-(3-PROPANOYL)-6,6,8BETA-TRIMETHYL-1ALPHA,5ALPHA-BICYCLO(3.3.0)OCTAN-2-ONE; EI-MS
Formula: C14H22O2
Exact mass: 222.16198
Instrument type: EI-MS
m/z	relative intensity
96	10
123	64
124	20
138	3
161	16
165	999
166	199
167	1
179	14
222	224
223	59
