Mass spectrum: ACETONE (1,1,1,3,3,3-D6); EI-MS
Formula: C3H6O
Exact mass: 58.04186
Instrument type: EI-MS
m/z	relative intensity
16	36
18	202
26	11
28	55
30	80
32	15
34	19
38	24
40	30
42	62
44	65
45	27
46	999
47	22
64	210
