Mass spectrum: 2-(3,4-DIHYDRO-5-HYDROXY-2-METHYL)-2H-1-BENZOPYRANETHANOL; EI-MS
Formula: C12H16O3
Exact mass: 208.10994
Instrument type: EI-MS
m/z	relative intensity
28	46
29	67
32	50
39	50
40	10
41	47
43	52
55	48
56	10
57	57
67	37
69	65
71	38
77	56
81	23
82	16
83	23
84	52
85	58
91	75
94	56
95	35
97	27
105	49
107	78
109	25
110	70
111	28
113	58
121	46
122	72
123	999
124	145
125	15
127	48
135	58
137	70
139	57
148	63
149	57
161	100
163	287
175	230
208	344
