Mass spectrum: ETHYL 2-METHYL-4-NITRO-1,7-TRIMETHYLENEINDOLE-3-CARBOXYLATE; EI-MS
Formula: C15H16N2O4
Exact mass: 288.11101
Instrument type: EI-MS
m/z	relative intensity
40	13
41	440
42	160
43	64
44	245
45	160
50	17
51	6
52	20
53	37
54	55
55	45
56	120
57	63
58	15
60	9
61	20
62	10
63	48
64	1
65	48
66	20
67	140
68	9
69	427
70	92
71	83
73	10
74	18
75	32
76	28
77	14
78	37
79	45
80	25
81	3
82	100
83	215
835	12
84	10
85	112
85.5	13
86	10
87	3
88	32
89	60
90	20
91	5
92	15
93	33
94	17
95	10
96	85
97	135
98	78
99	3
100	12
101	42
102	83
103	14
104	37
105	35
106	12
107	2
109	37
110	32
111	60
112	2
113	35
114	63
115	255
116	10
117	62
118	20
119	15
121	2
123	33
124	17
125	28
126	2
127	88
128	135
129	185
131	3
135	15
137	25
138	13
139	4
140	110
141	113
142	345
143	18
144	47
145	20
147	10
149	2
151	10
152	23
153	33
154	21
155	230
156	295
157	65
158	6
159	13
165	12
166	38
167	14
168	315
169	667
170	840
171	28
172	43
181	15
182	27
183	6
184	215
185	357
186	180
187	2
196	43
197	365
198	600
199	22
200	25
203	25
204	22
211	2
212	175
213	75
214	305
215	8
216	395
217	26
226	20
227	1
236	13
241	23
242	960
243	89
244	88
257	28
258	40
259	1
287	17
288	999
289	170
