Mass spectrum: 3,5,5-TRIMETHYLHEXYL PROPIONATE; EI-MS
Formula: C12H24O2
Exact mass: 200.17763
Instrument type: EI-MS
m/z	relative intensity
27	94
28	39
29	352
39	57
40	12
41	284
42	111
43	121
53	18
54	10
55	240
56	133
57	999
58	44
67	12
69	227
70	373
71	158
74	24
75	256
83	98
84	24
98	19
102	11
111	126
112	11
115	288
116	19
126	13
