Mass spectrum: 2-METHYL-3-HEXANOL; EI-MS
Formula: C7H16O
Exact mass: 116.12012
Instrument type: EI-MS
m/z	relative intensity
15	17
27	193
28	30
29	115
31	137
39	105
40	11
41	182
42	23
43	409
44	64
45	104
53	18
55	999
56	66
57	94
59	19
69	11
71	13
72	144
73	957
74	35
