Mass spectrum: 3-HYDROXY-2-CHLOROPROMAZINE; EI-MS
Formula: C17H19ClN2OS
Exact mass: 334.09066
Instrument type: EI-MS
m/z	relative intensity
41	29
42	119
43	29
44	4
55	9
56	19
57	14
58	999
59	49
84	19
85	9
86	78
87	49
183	19
184	39
185	1
186	19
220	54
221	9
222	1
248	29
249	24
250	14
334	6
335	9
336	19
