Mass spectrum: 3,3'-IMINODIPROPIONITRILE; EI-MS
Name: BIS(2-CYANOETHYL)AMINE
Formula: C6H9N3
Exact mass: 123.07965
Instrument type: EI-MS
m/z	relative intensity
15	34
26	46
27	103
28	306
29	53
30	175
38	6
39	21
40	61
41	76
42	999
43	127
51	14
52	61
53	20
54	523
55	42
56	59
57	11
66	12
67	9
81	58
82	23
83	859
84	52
123	6
