Mass spectrum: CYCLOPENTANONE; EI-MS
Formula: C5H8O
Exact mass: 84.05751
Instrument type: EI-MS
m/z	relative intensity
14	17
15	23
26	97
27	257
28	652
29	83
37	18
38	30
39	172
40	42
41	404
42	118
43	38
50	27
51	26
52	11
53	27
54	15
55	999
56	271
57	21
83	21
84	424
85	27
