Mass spectrum: N-GLYCYLGLYCINE; EI-MS
Formula: C4H8N2O3
Exact mass: 132.05349
Instrument type: EI-MS
m/z	relative intensity
17	42
18	179
26	10
27	56
28	248
29	94
30	999
31	57
32	36
36	11
40	18
41	32
42	68
43	47
44	176
45	26
55	18
56	48
57	23
58	14
59	18
60	13
69	13
71	41
74	21
85	12
86	12
87	12
88	10
89	26
97	12
104	33
114	95
132	52
