Mass spectrum: ISOPROPYL 2,4-HEXADIENOATE; EI-MS
Name: ISOPROPYL SORBATE
Formula: C9H14O2
Exact mass: 154.09938
Instrument type: EI-MS
m/z	relative intensity
15	49
26	23
27	256
29	3
31	12
37	12
38	56
39	55
41	743
42	58
43	389
44	1
45	14
50	18
51	51
52	3
53	26
55	62
56	14
59	12
63	26
65	145
66	204
67	88
68	218
69	48
70	11
81	2
83	18
84	50
94	16
95	999
96	79
97	928
98	51
109	3
111	74
112	391
113	27
139	1
154	212
155	17
