Mass spectrum: BENZYL ISOBUTYRATE; EI-MS
Formula: C11H14O2
Exact mass: 178.09938
Instrument type: EI-MS
m/z	relative intensity
27	83
39	102
41	103
42	12
43	326
50	15
51	62
52	14
63	26
65	119
71	136
77	75
78	15
79	50
89	38
90	72
91	999
92	77
105	16
107	29
108	217
109	13
178	149
179	15
