Mass spectrum: ALPHA-CEDRENE; EI-MS
Formula: C15H24
Exact mass: 204.1878
Instrument type: EI-MS
m/z	relative intensity
27	55
29	56
39	78
41	265
42	31
43	53
51	21
53	76
55	147
56	110
57	36
65	47
66	11
67	60
68	24
69	184
70	50
77	151
78	33
79	102
80	26
81	79
82	23
83	13
84	11
91	200
92	141
93	450
94	69
95	37
103	16
105	297
106	45
107	59
108	39
109	49
115	18
117	29
118	17
119	999
120	146
121	138
122	37
123	19
128	11
131	16
133	50
134	36
135	27
136	74
146	11
147	91
148	47
149	11
161	174
162	35
189	36
204	204
205	36
