Mass spectrum: ETHANETHIOL; EI-MS
Formula: C2H6S
Exact mass: 62.01902
Instrument type: EI-MS
m/z	relative intensity
26	94
27	488
28	240
29	792
33	30
34	146
35	126
45	142
46	111
47	613
49	27
57	54
58	79
59	61
61	143
62	999
63	175
64	48
