Mass spectrum: ACETOIN ACETATE; EI-MS
Name: 1-ACETYLETHYL ACETATE
Formula: C6H10O3
Exact mass: 130.06299
Instrument type: EI-MS
m/z	relative intensity
15	45
27	23
42	27
43	999
44	24
45	37
86	14
87	144
88	11
130	26
