Mass spectrum: METHYL BENZOATE; EI-MS
Formula: C8H8O2
Exact mass: 136.05243
Instrument type: EI-MS
m/z	relative intensity
50	90
51	180
76	30
77	470
78	40
105	999
106	60
136	370
