Mass spectrum: 6,7-DIMETHOXYFLAVONOL; EI-MS
Name: 3-HYDROXY-6,7-DIMETHOXY-2-PHENYL-4H-CHROMEN-4-ONE
Formula: C17H14O5
Exact mass: 298.08412
Instrument type: EI-MS
m/z	relative intensity
28	97
39	27
50	38
51	6
53	33
63	24
69	40
77	19
78	51
89	23
105	289
106	2
109	21
137	65
149	100
165	11
211	74
255	86
269	42
270	4
283	33
297	257
298	999
299	27
300	25
