Mass spectrum: (7E,11E)-1-(2-HYDROXYETHYL)-2,3-EPOXY-1,7,11-TRIMETHYLCYCLOTETRADECADIENE; EI-MS
Formula: C19H32O2
Exact mass: 292.24023
Instrument type: EI-MS
m/z	relative intensity
15	25
17	122
18	999
27	6
28	93
29	262
31	149
32	2
40	15
41	53
42	55
43	25
44	186
45	166
46	29
51	3
53	29
54	11
55	124
56	4
57	77
58	40
59	81
60	3
61	75
63	18
66	20
67	7
68	136
69	174
70	38
71	8
73	81
74	13
77	49
78	9
79	241
80	71
81	265
82	17
83	139
84	33
85	61
86	1
88	15
91	101
92	56
93	12
94	262
95	375
96	51
97	15
98	95
99	32
100	33
101	1
105	94
106	36
107	475
108	20
109	145
110	89
111	215
112	3
113	33
114	17
117	15
118	2
119	57
120	63
121	334
122	17
123	133
124	159
125	111
126	2
127	21
128	16
129	18
131	3
132	34
133	128
134	33
135	15
136	103
137	86
138	29
139	8
140	27
141	14
143	23
144	1
145	30
146	26
147	209
148	7
149	94
150	39
151	143
152	6
155	24
159	69
160	22
161	5
162	26
163	94
164	47
165	3
166	25
167	65
168	20
169	1
171	22
172	12
173	28
174	1
175	75
176	21
177	32
178	2
179	40
180	39
181	21
185	1
187	20
188	30
189	41
190	2
191	34
192	37
193	70
194	1
197	12
201	26
203	21
204	1
205	24
206	19
207	21
209	2
210	13
215	17
218	13
219	2
220	11
221	16
228	10
229	10
230	46
231	33
243	20
245	1
247	19
248	17
259	33
263	1
272	20
273	15
274	59
275	2
277	20
290	18
292	197
293	39
