Mass spectrum: (4S,5S)-2-(1-BROMOETHYL)-4,5-BIS(METHOXYMETHYL)-1,3-DIOXOLANE; EI-MS
Formula: C9H17BrO4
Exact mass: 268.03102
Instrument type: EI-MS
m/z	relative intensity
39	34
40	15
41	86
42	2
43	188
44	22
45	411
53	2
55	152
56	57
57	53
58	7
59	295
69	91
71	134
72	2
73	26
75	45
80	57
82	4
83	86
84	67
85	348
86	3
87	259
99	62
100	28
101	3
103	64
113	22
114	40
115	92
116	98
129	64
143	179
151	3
161	999
162	143
163	17
188	4
222	22
224	15
