Mass spectrum: BENZALDEHYDE DIMETHYL ACETAL; EI-MS
Formula: C9H12O2
Exact mass: 152.08373
Instrument type: EI-MS
m/z	relative intensity
43	36
44	32
47	32
50	105
51	237
52	41
75	121
76	34
77	677
78	88
91	159
105	589
106	228
121	999
122	89
136	128
152	35
