Mass spectrum: DIMETHYL TEREPHTHALATE; EI-MS
Name: 1,4-BENZENEDICARBOXYLIC ACID DIMETHYL ESTER
Formula: C10H10O4
Exact mass: 194.05791
Instrument type: EI-MS
m/z	relative intensity
15	62
28	28
29	14
38	15
39	16
50	123
51	23
52	29
53	11
59	22
63	14
64	12
66	23
74	45
75	100
76	141
77	86
92	29
103	147
104	91
105	17
107	14
119	45
120	71
135	246
136	22
163	999
164	98
165	11
179	27
194	212
195	23
