Mass spectrum: 2-AMYLCINNAMIC ALDEHYDE DIETHYL ACETAL; EI-MS
Formula: C18H28O2
Exact mass: 276.20893
Instrument type: EI-MS
m/z	relative intensity
15	10
19	16
27	215
29	684
30	13
31	42
39	63
41	251
42	13
43	153
45	30
47	722
51	33
53	31
55	116
57	41
59	39
63	20
65	45
67	23
69	54
71	31
75	578
76	12
77	83
78	44
79	53
81	35
83	16
85	14
89	24
91	745
92	48
93	10
95	22
99	26
102	30
103	860
104	74
105	156
106	13
107	47
113	11
114	11
115	377
116	155
117	427
118	48
119	64
120	12
127	47
128	114
129	441
130	78
131	252
132	25
133	33
135	76
136	10
141	39
142	16
143	47
144	14
145	110
146	15
147	46
149	52
155	16
157	21
158	11
159	25
161	32
173	69
174	23
175	38
177	58
178	12
185	21
201	39
202	17
203	49
204	13
205	931
206	144
207	13
230	13
231	999
232	192
233	17
247	13
276	98
277	24
