Mass spectrum: HEPTYL BUTYRATE; EI-MS
Formula: C11H22O2
Exact mass: 186.16198
Instrument type: EI-MS
m/z	relative intensity
15	12
26	14
27	312
28	47
29	313
31	19
39	153
40	28
41	600
42	277
43	999
44	37
45	19
53	24
54	43
55	350
56	573
57	453
58	23
60	67
61	48
67	17
68	60
69	257
70	457
71	944
72	40
73	45
83	46
86	13
88	53
89	728
90	35
97	29
98	317
99	23
101	26
113	12
