Mass spectrum: DODECYL ACETATE; EI-MS
Formula: C14H28O2
Exact mass: 228.20893
Instrument type: EI-MS
m/z	relative intensity
40	16
41	351
42	127
43	999
44	34
53	16
54	37
55	28
56	214
57	175
58	19
61	19
67	36
68	63
69	192
70	15
71	54
73	22
81	14
82	7
83	136
84	79
85	24
96	3
97	96
98	48
99	5
101	0
110	7
111	37
112	19
116	1
124	3
125	13
126	7
139	0
140	16
141	2
168	6
169	1
