Mass spectrum: ETHYL PALMITATE; EI-MS
Formula: C18H36O2
Exact mass: 284.27153
Instrument type: EI-MS
m/z	relative intensity
45	95
55	220
56	93
57	39
60	151
61	207
67	74
69	26
70	285
71	147
73	241
81	8
83	168
84	95
85	72
88	999
89	173
95	62
97	133
98	7
101	533
102	69
115	100
143	8
157	164
199	58
239	78
241	9
284	68
