Mass spectrum: 2,6-BIS(TRIMETHYLSILYLOXY)BENZOIC ACID TRIMETHYLSILYL ESTER; EI-MS
Formula: C16H30O4Si3
Exact mass: 370.14519
Instrument type: EI-MS
m/z	relative intensity
45	389
47	68
73	999
74	10
75	191
77	134
133	68
147	17
149	71
249	102
265	123
267	16
355	449
356	58
