Mass spectrum: NONANAL; EI-MS
Formula: C9H18O
Exact mass: 142.13577
Instrument type: EI-MS
m/z	relative intensity
39	368
40	82
41	999
42	279
43	671
44	497
45	142
51	22
52	15
53	78
54	126
55	493
56	505
57	812
58	52
65	19
66	34
67	184
68	256
69	246
70	301
71	119
72	51
79	22
81	183
82	227
83	67
85	22
86	20
95	145
96	135
97	19
98	194
99	32
114	42
124	21
