Mass spectrum: 4-BROMOPHENOL; EI-MS
Formula: C6H5BrO
Exact mass: 171.95238
Instrument type: EI-MS
m/z	relative intensity
43	14
46	63
49	18
50	60
51	23
53	53
60	14
61	53
62	83
63	179
64	106
65	553
66	38
74	29
86	68
87	63
92	33
93	347
94	28
117	23
119	39
143	92
145	95
171	66
172	999
173	125
174	977
175	68
