Mass spectrum: RUBRATOXIN B; EI-MS
Formula: C26H30O11
Exact mass: 518.17881
Instrument type: EI-MS
m/z	relative intensity
27	151
29	52
30	7
31	2
39	127
40	36
41	370
42	7
43	999
44	732
45	31
46	3
50	17
51	32
52	15
53	9
54	25
55	206
56	34
57	18
58	33
60	13
63	25
64	1
65	52
66	20
67	52
68	1
69	88
70	28
71	34
72	1
73	18
77	82
78	35
79	8
80	16
81	68
82	39
83	5
84	17
85	228
86	16
89	2
91	119
92	21
93	25
94	3
95	60
96	17
97	149
98	6
99	19
103	38
104	26
105	8
106	16
107	42
108	14
109	18
110	60
111	44
113	472
114	4
115	163
116	78
117	65
118	0
119	37
120	13
121	19
123	2
126	15
127	31
128	49
129	6
130	18
131	47
132	20
133	5
134	18
135	35
136	21
137	2
141	25
143	29
144	212
145	7
146	32
147	50
148	20
149	3
155	20
157	25
158	14
159	3
160	29
161	73
162	31
163	2
165	20
169	19
171	20
173	4
174	20
175	27
185	19
187	2
189	22
225	19
227	22
229	2
241	17
243	20
256	19
257	2
269	24
270	16
271	38
272	2
273	16
274	21
275	25
287	2
289	16
297	15
315	37
316	2
330	21
331	19
340	17
343	0
358	22
376	16
384	29
386	2
400	15
402	15
412	17
428	2
438	11
456	27
474	4
