Mass spectrum: 9-HYDROXY-4-OXO-4H-PYRIDO(1,2-A)PYRIMIDINE-3-ACETIC ACID ETHYL ESTER; EI-MS
Formula: C12H12N2O4
Exact mass: 248.07971
Instrument type: EI-MS
m/z	relative intensity
39	78
53	19
55	58
65	2
66	39
67	22
87.5	21
94	13
95	22
121	75
147	78
175	999
176	114
177	10
191	24
203	4
248	375
249	50
