Mass spectrum: 3-METHYL-1-(TETRAHYDRO-2-FURANYL)-5-FLUOROURACIL; EI-MS
Formula: C9H11FN2O3
Exact mass: 214.07537
Instrument type: EI-MS
m/z	relative intensity
41	100
42	60
43	300
44	0
69	30
70	120
71	999
72	1
87	80
88	30
99	30
100	0
115	10
116	20
117	20
127	1
144	70
145	130
146	20
214	1
215	40
