Mass spectrum: 4-TRIMETHYLSILYLMETHYL-6-PHENYL-5,6-DIHYDRO-2H-PYRAN; EI-MS
Formula: C15H22OSi
Exact mass: 246.14399
Instrument type: EI-MS
m/z	relative intensity
43	42
45	85
51	38
59	71
73	999
74	97
75	128
77	99
91	84
98	54
104	38
105	98
106	68
125	34
128	65
129	45
140	88
141	96
155	66
156	121
179	328
180	54
231	65
246	41
