Mass spectrum: 11BETA-CHLORO-6,6,9BETA-TRIMETHYL-5ALPHA,8BETA-TRICYCLO(6.3.0.0(1,5))UNDECAN-2-ONE; EI-MS
Formula: C14H21ClO
Exact mass: 240.12809
Instrument type: EI-MS
m/z	relative intensity
18	31
93	69
94	34
105	2
106	188
107	63
108	18
119	2
120	80
133	46
147	28
148	35
149	242
151	20
160	25
161	5
162	133
163	51
176	86
177	2
184	999
185	391
186	183
187	5
189	227
197	18
204	780
205	48
206	69
225	814
226	80
227	12
228	34
238	11
240	105
241	1
242	52
