Mass spectrum: 1-(2-METHOXYPHENYL)-5-METHYL-4-HEXENE-1-OL; EI-MS
Formula: C14H20O2
Exact mass: 220.14633
Instrument type: EI-MS
m/z	relative intensity
108	10
119	12
121	108
122	2
132	19
133	22
134	51
135	3
136	10
137	467
147	16
148	2
150	47
151	11
159	113
160	2
163	206
164	42
171	12
173	1
177	391
178	16
187	58
188	1
202	999
203	176
204	14
218	1
220	322
221	47
