Mass spectrum: CHRYSANTHENONE; EI-MS
Formula: C10H14O
Exact mass: 150.10447
Instrument type: EI-MS
m/z	relative intensity
40	60
41	305
42	35
43	6
44	11
50	35
51	110
52	5
53	128
54	27
55	66
56	1
57	14
62	12
63	39
65	12
66	34
67	82
68	11
69	2
70	85
77	163
78	41
79	28
80	339
81	60
82	43
83	1
91	543
92	87
93	90
94	2
95	43
96	14
103	20
105	17
106	32
107	999
108	126
109	4
120	34
122	271
123	35
135	6
136	5
149	11
150	117
151	14
