Mass spectrum: 2,6-DIMETHYLBENZENAMINE; EI-MS
Name: 2,6-XYLIDINE
Formula: C8H11N
Exact mass: 121.08915
Instrument type: EI-MS
m/z	relative intensity
27	41
28	42
30	26
38	17
39	90
40	14
41	32
42	41
46.5	18
50	26
51	64
52	45
53	59
54	27
58.5	30
59.5	39
60	11
60.5	39
62	13
63	35
64	44
65	12
66	59
67	20
76	11
77	149
78	77
79	49
80	23
89	15
91	105
92	29
93	45
94	18
102	14
103	74
104	52
105	27
106	555
107	49
117	10
118	33
119	27
120	564
121	999
122	92
