Mass spectrum: CIS-L-CARVYL BUTYRATE; EI-MS
Formula: C14H22O2
Exact mass: 222.16198
Instrument type: EI-MS
m/z	relative intensity
27	183
29	90
39	170
40	27
41	365
42	43
43	785
44	22
51	28
52	16
53	110
54	22
55	158
56	11
65	45
66	24
67	75
68	41
69	29
71	999
72	38
77	141
78	40
79	152
80	78
81	54
82	30
83	29
84	103
89	15
91	286
92	220
93	243
94	46
95	31
96	33
97	24
103	17
104	10
105	170
106	86
107	119
108	100
109	536
110	45
115	13
117	31
119	582
120	54
122	10
123	28
124	15
133	32
134	291
135	40
137	34
151	13
152	589
153	78
154	14
178	17
179	99
180	12
