Mass spectrum: CIS-1,2-CYCLOHEXANE-DICARBOXYLIC ACID BIS(TRIMETHYLSILYL) ESTER; EI-MS
Name: DI(TRIMETHYLSILYL) CIS-1,2-CYCLOHEXANEDICARBOXYLATE
Formula: C14H28O4Si2
Exact mass: 316.15261
Instrument type: EI-MS
m/z	relative intensity
45	500
51	63
55	79
67	8
69	76
74	109
75	445
77	20
79	90
80	65
81	469
82	11
109	104
110	71
117	98
133	5
147	999
148	184
149	126
154	6
183	104
198	148
204	52
226	9
272	57
301	140
302	32
