Mass spectrum: META-METHYLHIPPURIC ACID; EI-MS
Formula: C10H11NO3
Exact mass: 193.07389
Instrument type: EI-MS
m/z	relative intensity
51	47
52	13
56	22
62	28
63	88
64	41
65	286
66	19
74	28
77	22
89	88
90	103
91	321
92	101
105	18
118	87
119	999
120	101
134	28
148	154
149	211
150	22
193	12
