Mass spectrum: 3-METHYLTETRAHYDROFURAN; EI-MS
Formula: C5H10O
Exact mass: 86.07316
Instrument type: EI-MS
m/z	relative intensity
29	79
41	496
55	89
56	999
57	60
71	52
85	57
86	27
87	14
