Mass spectrum: HYDROQUINONE; EI-MS
Formula: C6H6O2
Exact mass: 110.03678
Instrument type: EI-MS
m/z	relative intensity
38	49
39	169
41	22
42	1
43	19
49	20
50	56
51	8
52	55
53	261
54	125
55	23
61	37
62	42
63	69
64	4
65	30
66	22
69	27
81	22
82	93
91	21
109	52
110	999
111	60
