Mass spectrum: 1-BUTYLCARBAMOYL-5-FLUOROURACIL; EI-MS
Formula: C9H12FN3O3
Exact mass: 229.08627
Instrument type: EI-MS
m/z	relative intensity
28	180
29	150
30	70
31	1
39	70
40	20
41	200
42	1
43	190
44	70
55	80
56	2
57	170
58	80
59	40
60	1
70	50
71	20
86	70
87	4
98	50
99	10
100	20
114	1
130	999
131	120
143	20
186	0
229	90
230	40
