Mass spectrum: 2-CHLOROPHENOL; EI-MS
Formula: C6H5ClO
Exact mass: 128.00289
Instrument type: EI-MS
m/z	relative intensity
51	43
53	110
60	32
61	96
62	168
63	536
64	766
65	315
66	49
72	39
73	99
74	54
75	53
91	40
92	218
93	33
94	23
99	76
100	96
101	29
102	30
127	394
128	999
129	155
130	312
131	23
