Mass spectrum: 4-OXO-6,7,8,9-TETRAHYDRO-4H-PYRIDO(1,2-A)PYRIMIDINE-3-ACETIC ACID ETHYL ESTER; EI-MS
Formula: C12H16N2O3
Exact mass: 236.11609
Instrument type: EI-MS
m/z	relative intensity
39	79
41	27
53	26
54	4
55	67
80	14
82	115
135	2
162	26
163	999
164	191
165	1
190	81
191	76
192	10
207	0
236	213
237	29
238	3
