Mass spectrum: 2-METHYLTHIOETHANOL; EI-MS
Formula: C3H8OS
Exact mass: 92.02959
Instrument type: EI-MS
m/z	relative intensity
45	294
46	142
47	324
48	19
49	111
53	25
59	40
61	999
62	213
63	40
66	15
68	2
74	30
76	25
92	639
94	45
