Mass spectrum: DIHYDROCARVENYL ACETATE(EQUATORIAL); EI-MS
Formula: C12H20O2
Exact mass: 196.14633
Instrument type: EI-MS
m/z	relative intensity
15	55
27	130
28	77
29	153
30	4
31	7
32	18
38	4
39	188
40	52
41	441
42	45
43	970
44	21
45	7
50	8
51	28
52	14
53	155
54	32
55	246
56	26
57	19
58	10
59	3
60	2
61	4
63	7
65	37
66	24
67	248
68	300
69	132
70	15
71	18
72	35
73	2
77	70
78	17
79	448
80	92
81	233
82	144
83	50
84	17
85	8
91	61
92	56
93	659
94	258
95	163
96	23
97	52
98	7
105	33
106	12
107	707
108	233
109	55
110	19
111	22
112	4
119	10
120	8
121	628
122	66
123	9
135	22
136	999
137	132
138	7
139	2
152	35
153	8
154	34
155	4
