Mass spectrum: 2,3-DIMETHYL-7-NITROINDOLE; EI-MS
Formula: C10H10N2O2
Exact mass: 190.07423
Instrument type: EI-MS
m/z	relative intensity
45	268
50	30
51	63
52	4
53	52
54	31
55	184
56	9
57	366
60	167
63	44
65	5
67	75
68	60
69	411
70	7
71	140
73	164
74	34
75	3
77	113
79	45
81	134
82	4
83	113
84	38
85	63
89	4
91	101
93	30
95	63
97	7
98	30
101	35
102	50
103	4
115	211
116	77
117	74
128	7
129	140
132	39
142	63
143	42
144	625
145	60
149	47
160	3
175	158
189	321
190	999
191	123
