Mass spectrum: BIS(TRIMETHYLSILYL)METHANE; EI-MS
Name: 1.1.1.3.3.3-HEXAMETHYLDISILMETHYLENE
Formula: C7H20Si2
Exact mass: 160.11035
Instrument type: EI-MS
m/z	relative intensity
43	36
44	15
45	85
51	15
57	10
58	11
59	73
65	68
66	10
72	10
73	374
74	32
75	14
85	17
101	12
115	11
129	47
145	999
146	146
147	69
160	1
