Mass spectrum: ETHYL BROMIDE; EI-MS
Formula: C2H5Br
Exact mass: 107.95746
Instrument type: EI-MS
m/z	relative intensity
14	33
15	29
25	40
26	26
27	813
28	190
29	999
30	2
79	43
80	17
81	41
82	2
93	34
95	29
107	12
108	57
109	17
110	563
111	16
