Mass spectrum: CROTONIC ACID ETHYL ESTER; EI-MS
Name: TRANS-2-BUTENOIC ACID ETHYL ESTER
Formula: C6H10O2
Exact mass: 114.06808
Instrument type: EI-MS
m/z	relative intensity
15	43
26	27
27	104
28	140
29	180
37	16
38	34
39	237
40	45
41	349
42	41
43	27
44	21
45	56
55	11
68	45
69	999
70	47
71	17
77	10
86	51
87	14
94	31
99	190
100	10
114	11
