Mass spectrum: 3-PHENYLPROPYL ACETATE; EI-MS
Formula: C11H14O2
Exact mass: 178.09938
Instrument type: EI-MS
m/z	relative intensity
41	17
43	685
44	10
65	43
77	37
78	50
79	37
90	21
91	562
92	105
103	92
104	26
105	167
115	33
116	385
117	999
118	946
119	204
178	1
