Mass spectrum: 3,4-BIS(TRIMETHYLSILYL)OXY-CINNAMIC ACID TRIMETHYLSILYL ESTER; EI-MS
Name: TRIMETHYLSILYL 3,4-BIS(TRIMETHYLSILOXY)CINNAMATE
Formula: C18H32O4Si3
Exact mass: 396.16084
Instrument type: EI-MS
m/z	relative intensity
45	396
73	999
74	69
75	15
147	39
191	94
219	915
220	13
221	39
249	59
307	69
381	9
382	34
396	376
397	128
398	39
