Mass spectrum: DIHYDROISOJASMONE; EI-MS
Name: 3-METHYL-2-(3-METHYLBUTYL)-2-CYCLOPENTEN-1-ONE
Formula: C11H18O
Exact mass: 166.13577
Instrument type: EI-MS
m/z	relative intensity
28	52
29	41
41	100
43	188
54	47
55	132
67	269
68	231
81	176
84	104
96	900
97	999
109	373
110	236
123	352
124	84
137	321
138	58
151	34
165	37
166	219
167	27
