Mass spectrum: (16R)-ENT-KAURAN-15-ONE; EI-MS
Formula: C20H32O
Exact mass: 288.24532
Instrument type: EI-MS
m/z	relative intensity
79	35
80	10
81	10
91	18
92	57
93	50
94	129
95	3
96	10
97	25
105	30
106	9
107	93
108	43
109	121
110	3
111	25
120	39
121	36
122	5
123	300
124	86
125	61
126	1
135	54
136	164
137	243
138	14
139	25
146	7
147	36
148	1
149	79
150	100
151	75
152	3
153	11
159	14
160	11
161	3
162	14
163	39
164	64
165	2
166	5
167	11
213	43
214	1
215	200
216	39
217	18
218	1
228	18
229	20
230	999
231	18
232	61
233	11
245	91
246	2
255	34
256	7
260	14
261	1
270	29
271	11
274	157
275	4
276	4
288	379
289	86
290	14
