Mass spectrum: DECAFLUOROBIPHENYL; EI-MS
Formula: C12F10
Exact mass: 333.98403
Instrument type: EI-MS
m/z	relative intensity
44	14
55	7
69	41
74	24
79	23
86	9
93	93
98	34
103	19
110	12
117	84
122	25
124	21
127	10
129	10
132	21
134	18
141	56
142	11
146	15
148	24
153	11
158	8
160	16
165	58
166	3
167	74
172	11
177	12
179	16
184	13
189	3
191	9
196	26
203	43
204	2
210	12
215	37
222	7
227	27
234	91
235	8
241	30
242	2
246	28
253	22
258	4
265	382
266	41
272	16
284	41
296	104
297	11
303	14
315	108
316	13
334	999
335	130
336	6
