Mass spectrum: DIMETHYL SUBERATE; EI-MS
Formula: C10H18O4
Exact mass: 202.12051
Instrument type: EI-MS
m/z	relative intensity
15	718
16	21
18	19
25	2
26	20
27	281
28	175
29	28
30	30
31	76
33	17
36	2
39	205
40	70
41	712
42	24
43	743
44	50
45	144
48	2
51	22
53	60
54	56
55	89
56	163
57	64
58	37
59	71
60	35
67	89
68	169
69	92
70	85
71	31
72	25
73	10
74	999
75	47
79	36
81	5
82	93
83	400
84	96
85	5
86	33
87	367
88	50
93	3
95	30
96	36
97	545
98	2
99	16
100	13
101	86
109	3
110	135
111	202
112	28
113	4
114	102
115	35
116	30
127	3
128	26
129	584
130	39
137	4
138	495
139	125
140	36
142	8
143	35
170	38
171	334
172	36
