Mass spectrum: MALEIC ACID MONOMETHYL ESTER; EI-MS
Name: CIS-BUTENEDIOIC ACID MONOMETHYL ESTER
Formula: C5H6O4
Exact mass: 130.02661
Instrument type: EI-MS
m/z	relative intensity
15	207
25	93
26	720
27	39
28	62
29	237
30	31
31	320
32	229
41	41
44	111
53	124
54	999
55	56
59	167
82	26
85	112
98	217
99	37
113	811
114	66
