Mass spectrum: 2-PENTANONE; EI-MS
Formula: C5H10O
Exact mass: 86.07316
Instrument type: EI-MS
m/z	relative intensity
15	51
26	15
27	121
28	10
29	16
39	79
41	115
42	53
43	999
44	26
58	80
71	86
86	164
