Mass spectrum: 1-OCTYL-2,2,5,5-TETRAMETHYL-2,5-DISILAPYRROLIDINE; EI-MS
Formula: C14H33NSi2
Exact mass: 271.21515
Instrument type: EI-MS
m/z	relative intensity
41	17
43	12
45	12
59	93
73	87
86	12
100	17
116	16
117	21
130	12
144	11
158	13
172	999
173	185
174	83
198	25
256	46
257	12
271	15
