Mass spectrum: 3,3-DIMETHYLGLUTARIC ACID DIMETHYL ESTER; EI-MS
Formula: C9H16O4
Exact mass: 188.10486
Instrument type: EI-MS
m/z	relative intensity
41	31
42	116
44	32
53	6
55	434
56	106
59	298
68	3
69	145
71	34
73	999
74	28
81	58
82	58
83	600
87	7
96	67
97	91
109	94
113	13
114	77
115	686
116	44
128	41
129	129
141	213
156	158
157	46
158	32
