Mass spectrum: PARA-CRESOL DEUTEROMETHYL ETHER; EI-MS
Name: (2H3)METHYL PARA-TOLYL ETHER
Formula: C8H10O
Exact mass: 122.07316
Instrument type: EI-MS
m/z	relative intensity
15	107
16	76
17	107
18	107
26	107
27	259
28	641
29	233
30	138
31	198
32	176
33	46
37	84
38	176
39	412
40	107
41	198
42	107
43	198
44	107
45	176
46	76
47	46
48	46
49	69
50	360
51	565
52	344
53	259
54	76
55	130
56	100
57	107
58	84
59	76
60	61
61	107
62	176
63	320
64	138
65	390
66	107
67	92
68	61
69	92
70	61
71	76
72	61
73	122
74	138
75	114
76	100
77	999
78	412
79	641
80	138
81	92
82	33
83	38
84	33
85	38
86	92
87	92
88	69
89	122
90	100
91	275
92	198
93	153
94	92
95	153
96	38
97	33
98	33
99	33
100	23
101	23
102	33
103	38
104	33
105	153
106	69
107	428
108	214
109	100
110	107
111	92
115	33
121	92
122	176
123	351
124	443
125	267
126	21
