Mass spectrum: 5-FLUORO-1-(CIS-4-METHOXYTETRAHYDRO-2-FURANYL)-3-METHYLURACIL; EI-MS
Formula: C10H13FN2O4
Exact mass: 244.08594
Instrument type: EI-MS
m/z	relative intensity
41	160
43	60
45	40
68	1
69	660
70	60
71	200
72	0
73	90
100	60
101	999
102	1
144	140
145	90
176	30
186	0
212	60
244	90
245	20
