Mass spectrum: 2-AMINO-1,3,5-TRIAZINE; EI-MS
Formula: C3H4N4
Exact mass: 96.0436
Instrument type: EI-MS
m/z	relative intensity
13	15
14	15
16	13
17	12
27	116
28	453
29	13
38	12
39	20
40	18
41	111
42	601
43	407
53	98
54	79
55	10
67	12
68	91
69	117
96	999
97	79
