Mass spectrum: METHYL 3-HYDROXY-2-PYRAZINECARBOXYLATE; EI-MS
Formula: C6H6N2O3
Exact mass: 154.03784
Instrument type: EI-MS
m/z	relative intensity
15	167
26	41
27	34
28	105
29	52
31	27
38	35
39	11
40	566
41	66
42	78
44	3
45	57
51	27
52	52
54	3
59	90
66	32
67	120
68	54
69	68
70	39
94	291
95	33
96	999
97	54
123	107
124	44
125	29
154	520
155	61
