Mass spectrum: ALPHA-(4-DIMETHYLAMINOPHENYL)-OMEGA-(9-PHENANTHRYL)PENTANE; EI-MS
Name: 1-(4-DIMETHYLAMINOPHENYL)-5-(9-PHENANTHRYL)PENTANE
Formula: C27H29N
Exact mass: 367.23
Instrument type: EI-MS
m/z	relative intensity
118	6
120	64
121	9
133	6
134	999
135	99
136	6
146	6
147	18
148	18
160	14
161	6
175	5
184	6
191	21
192	6
353	30
354	9
366	14
367	512
368	163
369	24
