Mass spectrum: PARA IODO ISOBUTYLBENZOATE; EI-MS
Formula: C11H13IO2
Exact mass: 303.99602
Instrument type: EI-MS
m/z	relative intensity
27	35
29	102
39	44
41	152
43	34
50	186
51	24
55	34
56	329
57	54
65	41
73	19
74	46
75	65
76	429
77	41
78	31
104	116
105	22
121	45
203	211
204	14
231	999
232	81
248	995
249	225
250	15
304	33
