Mass spectrum: 2-PIPECOLINE; EI-MS
Name: 2-METHYLPIPERIDINE
Formula: C6H13N
Exact mass: 99.1048
Instrument type: EI-MS
m/z	relative intensity
15	31
26	11
27	93
28	179
29	55
30	170
39	77
40	13
41	106
42	254
43	163
44	93
53	24
54	22
55	75
56	336
57	108
58	38
67	16
68	18
69	18
70	130
71	82
82	18
84	999
85	60
98	113
99	157
100	11
