Mass spectrum: (2S)-2-(4-AZIDO-1-OXOBUTYL)-N-TERT-BUTOXYCARBONYLPYRROLIDINE; EI-MS
Formula: C13H22N4O3
Exact mass: 282.16919
Instrument type: EI-MS
m/z	relative intensity
70	59
114	1000
170	999
