Mass spectrum: 1-HEXADECENE; EI-MS
Formula: C16H32
Exact mass: 224.2504
Instrument type: EI-MS
m/z	relative intensity
27	186
28	79
29	442
39	197
40	29
41	999
42	221
43	958
44	27
53	69
54	144
55	882
56	470
57	713
58	26
67	139
68	130
69	580
70	442
71	291
72	14
81	44
82	156
83	569
84	267
85	143
95	18
96	61
97	443
98	154
99	22
110	25
111	178
112	89
113	10
124	11
125	76
126	38
139	18
140	22
154	15
224	17
