Mass spectrum: 17BETA-ACETOXY-1ALPHA-HYDROXY-5ALPHA-ANDROSTANE; EI-MS
Formula: C21H34O3
Exact mass: 334.25079
Instrument type: EI-MS
m/z	relative intensity
29	18
41	53
43	235
44	11
53	18
55	79
57	19
65	9
67	65
68	13
69	28
71	14
77	30
79	81
80	20
81	125
82	18
83	18
91	72
92	18
93	110
94	83
95	101
96	13
97	18
105	111
106	43
107	110
108	146
109	61
110	13
111	23
117	23
118	18
119	69
120	46
121	67
122	27
123	18
124	11
129	12
131	93
132	28
133	83
134	57
135	61
136	14
137	11
143	13
144	10
145	89
146	209
147	130
148	86
149	43
150	9
157	13
158	9
159	101
160	60
161	83
162	62
163	28
165	10
171	14
173	55
174	58
175	60
176	18
177	11
179	11
180	10
185	73
186	19
187	41
188	24
189	18
199	32
200	31
201	362
202	87
203	32
206	35
207	11
213	32
214	18
215	135
216	42
217	29
218	10
219	45
220	14
221	10
227	28
228	25
229	13
230	43
231	16
233	28
234	12
241	166
242	35
245	14
246	17
247	9
248	16
255	19
256	676
257	280
258	47
259	120
260	77
261	104
262	28
273	22
274	403
275	90
276	12
287	13
301	49
302	11
315	8
316	999
317	239
318	33
319	9
334	191
335	45
