Mass spectrum: 1,2,3,4-TETRAHYDRO-CIS-3-METHYL-1-NAPHTHYLACETATE; EI-MS
Formula: C13H16O2
Exact mass: 204.11503
Instrument type: EI-MS
m/z	relative intensity
118	10
120	80
121	3
129	45
130	50
134	10
142	3
143	2
144	999
145	167
146	10
147	0
158	40
159	3
160	20
161	2
162	233
163	20
175	7
204	10
