Mass spectrum: PHENOXYETHYL ACETATE; EI-MS
Formula: C10H12O3
Exact mass: 180.07864
Instrument type: EI-MS
m/z	relative intensity
15	71
18	19
27	27
28	19
29	16
38	16
39	102
40	11
42	22
43	999
44	22
45	12
50	25
51	116
63	21
64	10
65	92
66	30
77	206
78	18
79	23
87	779
88	28
91	27
94	152
95	12
107	25
120	20
180	24
