Mass spectrum: 7-ETHYL-2-METHYLUNDECAN-4-ONE; EI-MS
Formula: C14H28O
Exact mass: 212.21402
Instrument type: EI-MS
m/z	relative intensity
15	18
41	597
43	667
55	477
57	572
69	999
70	301
83	530
87	512
97	279
98	104
111	65
112	119
126	47
127	21
139	24
157	237
158	26
196	43
212	1
