Mass spectrum: PYRIDINE-N-OXIDE; EI-MS
Formula: C5H5NO
Exact mass: 95.03711
Instrument type: EI-MS
m/z	relative intensity
26	42
27	25
28	65
29	25
30	26
35	49
36	442
37	43
38	177
39	606
40	165
41	96
42	39
49	15
50	81
51	137
52	205
53	29
61	10
62	25
63	68
64	15
65	31
66	55
67	15
78	108
79	199
80	40
95	999
96	169
