Mass spectrum: N-ACETYLSERINE METHYL ESTER; EI-MS
Formula: C6H11NO4
Exact mass: 161.06881
Instrument type: EI-MS
m/z	relative intensity
28	11
30	19
31	17
32	24
41	62
42	190
43	242
44	19
55	10
56	11
58	29
59	52
60	10
71	207
80	30
83	40
84	53
86	23
100	42
101	999
102	72
105	22
106	36
109	56
111	334
112	56
113	10
114	37
115	18
143	659
144	59
145	16
