Mass spectrum: 3-ACETYL-9-ISOPROPYLCARBAZOLE; EI-MS
Formula: C17H17NO
Exact mass: 251.13101
Instrument type: EI-MS
m/z	relative intensity
41	250
42	15
43	140
44	6
45	310
55	150
56	24
57	20
60	170
61	14
67	18
68	2
69	390
70	24
71	74
73	8
81	120
82	17
83	47
84	2
85	36
95	22
97	31
111	1
129	20
137	18
138	16
139	12
140	22
149	15
164	26
165	5
166	280
167	160
168	14
180	2
191	18
192	26
193	160
194	52
195	26
208	14
223	15
236	98
237	230
250	26
251	999
252	170
