Mass spectrum: META-IODONITROBENZENE; EI-MS
Formula: C6H4INO2
Exact mass: 248.92867
Instrument type: EI-MS
m/z	relative intensity
26	16
30	187
37	45
38	52
39	32
43	15
46	93
49	33
50	342
51	33
57	13
61	19
62	28
63	45
64	41
65	17
73	47
74	199
75	159
76	485
77	40
92	67
93	15
127	247
128	38
191	63
203	546
204	44
219	22
220	29
233	12
249	999
250	73
