Mass spectrum: DIMETHYL 3-HYDROXYPHTHALATE; EI-MS
Formula: C10H10O5
Exact mass: 210.05282
Instrument type: EI-MS
m/z	relative intensity
15	61
29	16
39	29
51	12
52	13
53	25
59	13
62	27
63	76
64	18
65	65
69	10
80	18
92	46
93	62
95	18
107	10
108	52
119	22
120	28
121	29
136	34
149	56
151	63
152	10
179	999
180	104
181	19
210	235
211	25
