Mass spectrum: 3-METHYLBUTYL 3-PHENYLPROPENOATE; EI-MS
Name: ISOAMYL CINNAMATE
Formula: C14H18O2
Exact mass: 218.13068
Instrument type: EI-MS
m/z	relative intensity
14	20
27	102
29	43
39	82
41	155
42	57
43	184
50	29
51	125
52	18
53	18
55	170
63	20
69	30
70	469
71	28
74	12
75	22
76	33
77	369
78	28
91	22
101	11
102	132
103	499
104	105
105	11
107	11
120	20
130	17
131	999
132	103
147	343
148	518
149	355
150	31
218	74
219	10
