Mass spectrum: 2-METHYL-2-BUTANETHIOL; EI-MS
Formula: C5H12S
Exact mass: 104.06597
Instrument type: EI-MS
m/z	relative intensity
14	38
26	43
27	242
29	265
39	277
40	46
41	500
42	93
43	999
45	69
47	115
50	38
51	47
53	75
55	411
58	54
59	116
61	38
69	41
70	67
71	683
72	54
75	258
89	40
104	348
105	33
106	34
