Mass spectrum: 1,1-DICHLORO-2-TRIMETHYLSILOXYPENTANE; EI-MS
Formula: C8H18Cl2OSi
Exact mass: 228.0504
Instrument type: EI-MS
m/z	relative intensity
41	94
45	99
57	148
65	33
67	159
73	999
74	105
75	112
79	41
85	44
93	496
94	45
95	218
103	243
105	65
123	64
145	676
146	100
147	34
171	55
173	37
177	137
179	51
185	78
187	51
213	67
215	45
