Mass spectrum: 3-OCTANOL; EI-MS
Formula: C8H18O
Exact mass: 130.13577
Instrument type: EI-MS
m/z	relative intensity
15	10
27	153
28	27
29	221
31	216
39	80
40	12
41	298
42	46
43	141
44	68
45	30
53	16
55	477
56	58
57	120
58	96
59	999
60	32
69	24
70	23
71	15
83	511
84	35
100	10
101	230
102	13
112	24
