Mass spectrum: PHENYLETHYL BUTYRATE; EI-MS
Formula: C12H16O2
Exact mass: 192.11503
Instrument type: EI-MS
m/z	relative intensity
27	83
29	12
39	52
41	80
42	18
43	294
51	41
63	13
65	45
71	230
77	69
78	29
79	28
91	94
92	12
103	46
104	999
105	170
106	10
