Mass spectrum: 2-CYANOQUINOLINE-1-OXIDE; EI-MS
Formula: C10H6N2O
Exact mass: 170.04801
Instrument type: EI-MS
m/z	relative intensity
170	100
154	999
142	200
127	360
115	100
102	220
101	190
100	150
89	120
87	120
77	200
76	340
75	300
64	140
63	280
62	150
