Mass spectrum: 3-PHENYLPROPIONIC ACID METHYL ESTER; EI-MS
Formula: C10H12O2
Exact mass: 164.08373
Instrument type: EI-MS
m/z	relative intensity
50	44
51	97
52	32
53	2
55	8
62	11
63	35
64	1
65	88
66	8
75	14
76	2
77	147
78	106
79	106
87	1
89	23
90	8
91	592
92	5
93	8
102	17
103	109
104	999
105	333
106	29
107	47
121	1
131	29
132	20
133	109
134	1
136	11
164	333
165	38
