Mass spectrum: CYANURIC ACID; EI-MS
Name: 1,3,5-TRIAZINE-2,4,6(1H,3H,5H)-TRIONE
Formula: C3H3N3O3
Exact mass: 129.01744
Instrument type: EI-MS
m/z	relative intensity
28	31
41	16
43	330
70	72
86	120
87	13
129	999
130	63
131	15
