Mass spectrum: CYCLOPENTANONE DIMETHYLHYDRAZONE; EI-MS
Formula: C7H14N2
Exact mass: 126.1157
Instrument type: EI-MS
m/z	relative intensity
41	293
42	482
43	970
44	999
45	248
52	51
53	92
54	234
55	464
56	59
58	214
59	39
67	88
68	52
70	53
80	49
82	720
83	118
84	178
97	56
111	289
125	137
126	896
127	78
