Mass spectrum: 4-METHYLBENZOIC ACID TRIMETHYLSILYL ESTER; EI-MS
Formula: C11H16O2Si
Exact mass: 208.09196
Instrument type: EI-MS
m/z	relative intensity
43	102
44	274
45	245
47	14
63	125
65	480
89	131
91	69
92	131
93	131
96	137
119	999
120	137
141	131
149	897
150	15
193	668
194	137
208	131
