Mass spectrum: 3,5-DIMETHYL-4-(2'-TETRALOYL)METHYL-ISOXAZOLE; EI-MS
Formula: C16H17NO2
Exact mass: 255.12593
Instrument type: EI-MS
m/z	relative intensity
255	450
212	290
146	460
110	999
68	640
43	580
42	120
41	30
