Mass spectrum: ISOBUTYL BENZOATE; EI-MS
Formula: C11H14O2
Exact mass: 178.09938
Instrument type: EI-MS
m/z	relative intensity
29	13
41	29
56	422
57	29
73	18
77	128
78	11
79	22
105	999
106	85
122	32
123	836
124	67
135	10
