Mass spectrum: METHYL (2R,3R,4S)-2,4-DIMETHYL-3-HYDROXYHEXANOATE; EI-MS
Formula: C9H18O3
Exact mass: 174.12559
Instrument type: EI-MS
m/z	relative intensity
32	41
55	26
56	38
57	43
58	43
85	81
87	63
88	63
89	22
96	22
97	81
103	17
116	48
117	999
175	7
