Mass spectrum: PINANE (10-D); EI-MS
Name: 2,6,6-TRIMETHYLBICYCLO(3.1.1)HEPTANE (10-D)
Formula: C10H18
Exact mass: 138.14085
Instrument type: EI-MS
m/z	relative intensity
41	41
45	13
55	141
56	69
57	40
61	12
67	86
68	81
69	409
70	73
72	11
73	13
79	20
80	14
81	170
82	733
83	340
84	363
85	57
86	12
93	29
94	24
95	165
96	999
97	282
98	71
109	46
110	56
111	65
123	80
124	229
125	19
139	95
140	9
