Mass spectrum: CREOSOL; EI-MS
Name: 2-METHOXY-4-METHYLPHENOL
Formula: C8H10O2
Exact mass: 138.06808
Instrument type: EI-MS
m/z	relative intensity
15	40
26	11
27	45
28	23
29	21
32	15
38	27
39	160
40	30
41	102
43	22
50	45
51	124
52	38
53	53
55	182
62	17
63	33
65	92
66	90
67	167
68	14
69	13
77	163
78	47
79	26
91	16
94	50
95	349
96	23
106	20
107	31
109	16
122	20
123	861
124	63
137	52
138	999
139	102
