Mass spectrum: 2-HYDROXY-3-METHOXYACETOPHENONE; EI-MS
Formula: C9H10O3
Exact mass: 166.06299
Instrument type: EI-MS
m/z	relative intensity
41	12
43	58
65	27
67	29
77	61
80	13
81	17
93	47
95	12
105	57
108	113
109	30
121	16
123	33
133	51
136	90
137	14
148	45
151	999
152	94
166	728
167	80
