Mass spectrum: 3,7,11-TRIMETHYL-2,6,10-DODECATRIENENITRILE; EI-MS
Formula: C15H23N
Exact mass: 217.18305
Instrument type: EI-MS
m/z	relative intensity
27	30
29	30
39	42
41	310
42	12
43	35
53	70
55	78
67	60
68	62
69	999
70	60
77	16
79	25
80	20
81	417
82	30
91	13
93	20
94	13
95	45
96	13
106	10
107	10
109	35
121	15
123	16
124	42
136	33
137	46
146	16
148	17
161	17
174	35
202	10
217	15
