Mass spectrum: BUTYL CROTONATE; EI-MS
Name: BUTYL TRANS-2-BUTENOATE
Formula: C8H14O2
Exact mass: 142.09938
Instrument type: EI-MS
m/z	relative intensity
15	12
26	11
27	89
29	108
31	11
38	16
39	237
40	13
41	379
42	24
43	21
55	50
56	163
57	31
68	19
69	999
70	56
86	10
87	552
88	24
99	13
127	11
