Mass spectrum: 4,4'-DIBROMOBIPHENYL; EI-MS
Formula: C12H8Br2
Exact mass: 309.89928
Instrument type: EI-MS
m/z	relative intensity
44	87
50	215
51	160
62	109
63	179
74	143
75	211
76	419
98	93
102	71
115.5	60
125	66
126	114
150	128
151	246
152	999
153	138
310	475
311	82
312	947
313	111
314	450
