Mass spectrum: ETYLENEGLYCOL MONOPHENYL ETHER; EI-MS
Formula: C8H10O2
Exact mass: 138.06808
Instrument type: EI-MS
m/z	relative intensity
15	13
27	51
28	39
29	24
31	20
38	21
39	95
40	28
43	29
45	105
50	77
51	111
52	14
55	20
63	24
64	13
65	79
66	105
74	12
76	11
77	259
78	33
79	37
91	11
93	12
94	999
95	145
107	68
138	312
139	28
