Mass spectrum: 1-BENZYL-2,2,6,6-TETRAMETHYL-2,6-DISILAPIPERIDINE; EI-MS
Formula: C14H25NSi2
Exact mass: 263.15255
Instrument type: EI-MS
m/z	relative intensity
44	28
59	117
73	71
91	66
100	30
117	26
121	30
130	34
135	44
144	23
148	62
186	75
206	156
207	34
220	40
248	999
249	256
250	95
263	202
264	54
