Mass spectrum: 2,5-HEXANEDIONE; EI-MS
Name: ACETONYLACETONE
Formula: C6H10O2
Exact mass: 114.06808
Instrument type: EI-MS
m/z	relative intensity
15	67
27	47
28	25
29	18
39	42
40	23
41	36
42	33
43	999
44	35
53	43
55	22
57	66
67	38
68	13
71	124
72	27
81	31
95	17
96	58
97	13
99	208
100	13
114	24
