Mass spectrum: LINALYL FORMATE; EI-MS
Name: 1,5-DIMETHYL-1-VINYL-4-HEXENYL FORMATE
Formula: C11H18O2
Exact mass: 182.13068
Instrument type: EI-MS
m/z	relative intensity
15	15
27	207
29	140
31	11
39	251
40	61
41	742
42	55
43	347
44	14
45	12
51	47
52	22
53	195
54	22
55	286
56	25
57	17
65	43
66	20
67	215
68	194
69	472
70	34
71	175
72	11
77	87
78	15
79	153
80	394
81	143
82	47
83	43
91	102
92	152
93	999
94	115
95	42
105	61
106	14
107	83
108	16
109	13
119	11
121	305
122	24
136	89
137	19
