Mass spectrum: (2S,3S)-4-BENZYLOXY-2-METHOXYETHOXYMETHOXY-3-METHYLBUTANOL; EI-MS
Formula: C16H26O5
Exact mass: 298.17802
Instrument type: EI-MS
m/z	relative intensity
43	25
45	146
47	43
56	3
58	74
59	116
68	22
70	3
71	60
73	27
75	25
76	4
77	22
83	23
84	139
85	67
86	45
87	146
89	999
90	11
91	603
92	130
98	29
99	2
101	250
102	92
103	257
104	10
105	132
106	27
107	472
108	20
114	27
115	42
116	32
118	3
119	40
120	116
121	99
122	9
129	29
131	146
132	45
133	3
134	20
136	32
143	23
145	3
146	18
147	222
148	40
149	2
150	88
159	32
161	146
162	5
163	23
165	18
167	375
168	4
172	52
173	29
174	92
175	5
176	45
177	116
178	34
179	17
180	20
189	31
191	160
192	11
193	23
207	32
209	271
210	4
222	103
223	126
237	32
267	3
299	5
