Mass spectrum: CARBINOXAMINE; EI-MS
Formula: C16H19ClN2O
Exact mass: 290.11859
Instrument type: EI-MS
m/z	relative intensity
42	49
43	24
44	24
45	3
56	29
57	29
58	999
59	4
70	14
71	619
72	69
73	3
138	4
139	19
140	14
141	1
166	24
167	79
168	19
201	2
202	44
203	34
204	19
205	1
218	9
219	9
220	9
221	4
