Mass spectrum: 1-ETHYLPENTYL ACETATE; EI-MS
Name: 3-HEPTYL ACETATE
Formula: C9H18O2
Exact mass: 158.13068
Instrument type: EI-MS
m/z	relative intensity
15	17
27	69
29	88
31	10
39	31
41	106
42	24
43	999
44	27
55	59
56	92
57	68
58	24
59	18
61	16
69	67
70	29
73	13
98	62
101	139
129	84
