Mass spectrum: HEXYL BENZOATE; EI-MS
Formula: C13H18O2
Exact mass: 206.13068
Instrument type: EI-MS
m/z	relative intensity
41	14
42	71
43	52
55	75
56	243
57	14
69	82
77	68
79	38
83	16
84	236
85	18
105	502
106	45
122	139
123	999
124	79
135	9
206	41
