Mass spectrum: 1-(2-FURYL)-3-BUTENE-1-OL; EI-MS
Formula: C8H10O2
Exact mass: 138.06808
Instrument type: EI-MS
m/z	relative intensity
28	370
32	568
40	20
41	52
43	10
69	29
91	53
92	11
97	999
98	56
120	78
138	40
