Mass spectrum: DIMETHYLHYDRAZONE ACETALDEHYDE; EI-MS
Name: ACETALDEHYDE DIMETHYLHYDRAZONE
Formula: C4H10N2
Exact mass: 86.0844
Instrument type: EI-MS
m/z	relative intensity
27	152
28	326
29	33
30	35
39	26
40	61
41	100
42	78
43	326
44	911
45	196
55	2
56	94
58	35
71	261
72	1
83	15
85	305
86	999
87	72
