Mass spectrum: 11BETA-METHOXY-2,6,6,8BETA-TETRAMETHYL-5ALPHA-TRICYCLO(6,3,0,0(1,5))UNDEC-2-EN-4-ONE; EI-MS
Formula: C16H24O2
Exact mass: 248.17763
Instrument type: EI-MS
m/z	relative intensity
18	76
71	35
72	157
105	3
108	41
121	32
122	149
133	3
134	64
136	35
148	38
152	6
159	64
160	99
161	52
175	3
176	73
177	93
188	87
189	2
190	23
193	105
194	38
201	36
202	99
215	11
216	999
217	7
219	17
220	14
233	99
234	1
248	420
249	23
