Mass spectrum: 2-PHENYLETHYL ISOPROPYL ETHER; EI-MS
Formula: C11H16O
Exact mass: 164.12012
Instrument type: EI-MS
m/z	relative intensity
15	16
27	141
29	19
31	18
38	11
39	129
41	157
42	22
43	999
44	24
45	18
50	26
51	110
52	23
53	14
55	33
58	10
59	58
62	11
63	33
64	13
65	132
73	462
74	20
75	18
76	10
77	188
78	105
79	100
89	23
90	15
91	799
92	573
93	34
102	11
103	94
104	53
105	350
106	489
107	34
146	13
164	13
