Mass spectrum: BUTYL ACRYLATE; EI-MS
Name: ACRYLIC ACID BUTYL ESTER
Formula: C7H12O2
Exact mass: 128.08373
Instrument type: EI-MS
m/z	relative intensity
26	14
27	194
28	63
29	87
31	27
39	25
41	154
43	27
55	999
56	502
57	45
68	12
69	14
70	13
73	321
74	11
85	59
99	11
