Mass spectrum: PROPYL SALICYLATE; EI-MS
Name: PROPYL ORTHO HYDROXY BENZOATE
Formula: C10H12O3
Exact mass: 180.07864
Instrument type: EI-MS
m/z	relative intensity
27	41
39	82
41	28
43	14
63	27
64	36
65	97
92	199
93	70
120	999
121	267
122	20
138	186
139	12
180	155
181	16
