Mass spectrum: 4-METHOXYDIHYDROFURO(3',2':6,7)COUMARIN; EI-MS
Formula: C12H10O4
Exact mass: 218.05791
Instrument type: EI-MS
m/z	relative intensity
77	80
91	80
109	50
147	310
160	70
175	110
190	730
191	100
218	999
219	120
