Mass spectrum: BIS(2,4-DINITROPHENYL)ETHER; EI-MS
Formula: C12H6N4O9
Exact mass: 350.01348
Instrument type: EI-MS
m/z	relative intensity
45	130
46	77
50	59
51	238
52	58
53	125
62	126
63	273
64	88
74	153
75	185
76	97
77	106
79	825
80	62
86	44
87	52
88	38
90	45
91	86
92	48
93	174
103	42
107	73
117	43
118	87
126	50
134	81
137	67
138	56
154	36
164	80
166	40
167	999
168	110
184	82
202	52
230	224
267	38
350	94
351	16
