Mass spectrum: ACENAPHTHENE; EI-MS
Name: 1,2-DIHYDROACENAPHTHYLENE
Formula: C12H10
Exact mass: 154.07825
Instrument type: EI-MS
m/z	relative intensity
50	83
51	106
52	17
61	22
62	72
63	173
64	72
73	15
74	82
75	198
76	462
77	165
78	13
86	26
87	34
89	13
98	28
99	20
100	12
101	19
102	21
115	12
125	21
126	52
127	33
128	14
149	27
150	114
151	273
152	657
153	923
154	999
155	103
