Mass spectrum: ISOPROPYL N-METHYLANTHRANILATE; EI-MS
Formula: C11H15NO2
Exact mass: 193.11028
Instrument type: EI-MS
m/z	relative intensity
30	120
41	26
43	41
77	117
78	146
79	58
83	104
91	18
92	27
103	124
104	483
105	999
106	214
107	21
116	19
117	123
118	57
132	202
133	407
134	251
135	18
150	37
151	644
152	59
193	398
194	57
