Mass spectrum: 7-METHOXY-4-METHYLCOUMARIN; EI-MS
Formula: C11H10O3
Exact mass: 190.06299
Instrument type: EI-MS
m/z	relative intensity
18	45
28	18
39	32
41	32
50	23
51	63
52	18
62	23
63	27
64	18
65	72
77	68
78	9
80	9
81	9
89	32
91	117
92	9
103	23
118	9
119	36
131	9
141	23
146	14
147	734
148	41
161	90
162	622
163	90
190	999
191	140
192	9
