Mass spectrum: 3,5,5-TRIMETHYLHEXANOL; EI-MS
Formula: C9H20O
Exact mass: 144.15142
Instrument type: EI-MS
m/z	relative intensity
27	88
28	13
29	164
31	131
39	94
40	17
41	401
42	61
43	188
44	11
45	14
53	20
55	212
56	366
57	999
58	32
67	11
69	281
70	101
71	68
83	67
85	23
86	19
87	108
111	58
129	75
