Mass spectrum: 3-TERT-BUTYLMERCAPTO-4-TERT-BUTYLPYRIDINE; EI-MS
Formula: C13H21NS
Exact mass: 223.13947
Instrument type: EI-MS
m/z	relative intensity
29	450
39	230
41	480
45	5
55	60
57	999
65	70
125	6
126	70
136	80
150	60
152	6
153	70
166	90
167	720
168	1
223	120
224	20
