Mass spectrum: 8-HYDROXYQUINOLINE; EI-MS
Name: 8-QUINOLINOL
Formula: C9H7NO
Exact mass: 145.05276
Instrument type: EI-MS
m/z	relative intensity
18	14
27	8
28	28
37	10
38	20
39	38
40	5
41	5
50	21
51	21
52	13
53	7
58	29
61	16
62	42
63	87
64	30
65	10
72	5
74	12
75	13
76	11
77	9
78	12
85	4
86	9
87	13
88	17
89	152
90	157
91	21
92	3
114	5
115	9
116	74
117	561
118	50
119	3
144	14
145	999
146	110
147	8
