Mass spectrum: BUTYL SALICYLATE; EI-MS
Formula: C11H14O3
Exact mass: 194.09429
Instrument type: EI-MS
m/z	relative intensity
38	12
39	121
41	94
53	21
55	14
56	14
57	24
63	35
64	40
65	134
66	12
81	10
92	192
93	62
120	999
121	261
122	19
138	201
139	20
194	155
195	17
