Mass spectrum: VINYL PROPIONATE; EI-MS
Formula: C5H8O2
Exact mass: 100.05243
Instrument type: EI-MS
m/z	relative intensity
27	56
28	33
29	710
31	19
43	71
44	104
56	21
57	999
58	37
100	111
