Mass spectrum: (2S)-N-TERT-BUTOXYCARBONYL-2-(4-HYDROXY-1-OXOBUTYL)PYRROLIDINE; EI-MS
Formula: C13H23NO4
Exact mass: 257.16271
Instrument type: EI-MS
m/z	relative intensity
57	15
70	126
114	677
1700	999
171	24
184	40
228	20
