Mass spectrum: 2-ETHYL-4-METHYLTHIAZOLE; EI-MS
Formula: C6H9NS
Exact mass: 127.04557
Instrument type: EI-MS
m/z	relative intensity
29	10
39	340
41	49
42	219
45	196
46	16
54	37
56	140
59	16
68	56
70	46
71	758
72	999
73	318
74	136
82	285
85	38
99	210
100	80
112	391
113	21
114	18
125	109
126	758
127	800
128	300
129	188
130	10
