Mass spectrum: 12-PHENYLAZOBICYCLO(8.3.2)PENTADECA-1(13),10-DIEN-14,15-DIONE; EI-MS
Formula: C21H24N2O2
Exact mass: 336.18378
Instrument type: EI-MS
m/z	relative intensity
73	30
76	40
77	999
78	47
79	300
80	55
81	130
82	3
83	40
90	45
91	660
92	22
93	220
94	130
95	90
102	3
103	130
104	70
105	405
106	9
107	260
108	90
109	70
115	16
116	65
117	180
118	70
119	13
120	280
121	260
122	160
123	13
124	60
127	45
128	140
129	19
130	270
131	230
132	90
133	23
134	90
135	95
136	150
137	10
138	30
141	80
142	40
143	22
144	170
145	180
146	80
147	21
148	80
149	185
150	420
151	9
152	60
153	75
154	55
155	7
157	210
158	155
159	70
160	6
161	335
162	120
163	230
164	7
165	85
166	35
167	95
168	6
169	60
170	65
171	130
172	8
173	80
174	40
175	285
176	9
177	95
178	40
179	30
181	5
182	70
183	110
184	40
185	60
186	475
187	95
189	160
190	6
191	55
195	55
196	100
197	47
198	115
199	55
200	35
202	4
203	120
204	45
209	45
210	3
211	35
212	35
213	90
214	9
215	50
217	45
218	35
219	5
223	30
226	60
231	80
232	38
233	95
234	35
251	40
254	4
262	130
263	30
265	35
273	5
279	30
280	85
281	30
290	8
291	35
301	90
308	190
309	6
336	520
337	120
