Mass spectrum: ETHYL VALERATE; EI-MS
Name: PENTANOIC ACID ETHYL ESTER
Formula: C7H14O2
Exact mass: 130.09938
Instrument type: EI-MS
m/z	relative intensity
15	35
26	38
27	352
28	152
29	966
30	23
31	25
39	114
40	14
41	380
42	76
43	97
44	18
46	201
53	17
55	95
56	61
57	720
58	33
59	23
60	458
61	243
70	170
73	242
74	29
75	10
83	19
84	14
85	863
86	48
87	28
88	999
89	46
101	240
102	35
103	88
115	21
130	28
