Mass spectrum: BETA-FARNESENE; EI-MS
Name: (6E)-7,11-DIMETHYL-3-METHYLENE-1,6,10-DODECATRIENE
Formula: C15H24
Exact mass: 204.1878
Instrument type: EI-MS
m/z	relative intensity
27	144
29	133
39	186
41	904
53	245
55	330
67	266
69	999
79	367
81	287
93	782
94	202
105	96
107	138
119	112
120	133
133	192
134	43
147	11
148	11
161	80
162	11
189	11
204	53
205	11
