Mass spectrum: (3S,4R,5S)-1,1-DIBROMO-3,5-DIMETHYL-4-METHOXYMETHOXY-1-HEPTENE; EI-MS
Formula: C11H20Br2O2
Exact mass: 341.98301
Instrument type: EI-MS
m/z	relative intensity
41	69
43	47
45	999
46	7
55	41
56	33
57	195
58	3
67	34
69	49
70	38
71	3
80	27
82	35
85	677
86	4
93	23
98	27
101	83
131	99
132	75
177	31
179	23
204	2
210	39
212	120
214	45
224	1
226	12
228	5
