Mass spectrum: 2-(2-OXOPROPYL)CYCLODODECANONE; EI-MS
Formula: C15H26O2
Exact mass: 238.19328
Instrument type: EI-MS
m/z	relative intensity
42	298
43	999
55	394
67	157
69	223
71	241
81	223
82	169
83	155
95	248
96	308
97	174
98	336
108	134
109	299
111	142
114	324
121	176
181	144
195	374
220	287
238	363
