Mass spectrum: 2-OCTANOL; EI-MS
Formula: C8H18O
Exact mass: 130.13577
Instrument type: EI-MS
m/z	relative intensity
27	10
29	25
41	60
42	34
43	97
44	71
45	999
46	23
55	190
56	66
57	63
69	56
70	65
71	27
82	11
83	44
84	79
85	10
97	95
112	58
113	15
115	49
129	6
130	0
