Mass spectrum: 2-TERT-BUTYLCYCLOHEXYL ACETATE; EI-MS
Formula: C12H22O2
Exact mass: 198.16198
Instrument type: EI-MS
m/z	relative intensity
43	57
54	28
56	45
57	999
58	45
61	143
67	180
68	2
69	16
70	11
80	225
81	8
82	981
83	121
95	33
96	1
99	23
109	16
110	16
117	14
118	15
123	170
124	21
138	9
139	17
141	22
142	39
143	27
