Mass spectrum: TRIDECANOIC ACID TRIMETHYLSILYL ESTER; EI-MS
Formula: C16H34O2Si
Exact mass: 286.23281
Instrument type: EI-MS
m/z	relative intensity
43	756
45	100
47	97
55	26
57	88
69	103
73	999
74	10
75	963
76	63
77	218
117	75
118	69
129	240
131	130
132	26
145	170
271	389
272	69
