Mass spectrum: 4-BROMOPROPIOPHENONE; EI-MS
Formula: C9H9BrO
Exact mass: 211.98368
Instrument type: EI-MS
m/z	relative intensity
12	5
13	4
14	15
15	2
16	5
17	12
18	15
24	0
25	6
26	39
27	134
28	7
29	114
30	2
31	2
32	2
36	3
37	19
38	28
39	2
40	3
41	12
42	6
43	2
44	2
45	2
48	3
49	0
50	283
51	116
52	9
53	2
54	2
55	25
56	7
57	4
60	3
61	16
62	24
63	3
64	5
65	9
66	4
67	0
68	2
72	4
73	31
74	14
75	257
76	228
77	85
78	1
79	14
80	8
81	10
82	1
84	2
85	5
86	7
87	1
88	4
89	17
90	11
91	2
92	2
93	2
98	3
99	0
101	4
102	9
103	15
104	5
105	79
106	10
107	4
108	1
113	1
114	1
115	12
116	1
117	8
118	6
119	11
120	0
127	1
128	4
129	11
130	0
131	15
132	9
133	12
134	3
139	1
141	1
143	1
145	0
152	2
153	2
154	7
155	33
156	22
157	316
158	16
159	0
160	1
165	1
167	1
169	1
170	1
171	5
172	4
180	0
181	2
182	9
183	999
184	1
185	979
195	2
196	2
197	0
198	3
199	3
200	2
210	0
211	3
212	134
213	2
214	128
