Mass spectrum: 6-ETHYL-2,4-DIMETHYLPYRIDINE; EI-MS
Formula: C9H13N
Exact mass: 135.1048
Instrument type: EI-MS
m/z	relative intensity
27	146
28	87
29	22
38	31
39	173
40	11
41	62
51	81
52	31
53	68
63	35
64	10
65	51
77	110
78	15
79	69
91	43
92	11
93	17
105	14
106	82
107	267
119	20
120	22
134	999
135	493
136	48
