Mass spectrum: 3-TERT-BUTYLMERCAPTO-4,5-LUTIDINE; EI-MS
Formula: C11H17NS
Exact mass: 195.10817
Instrument type: EI-MS
m/z	relative intensity
29	80
39	80
41	160
57	30
67	70
106	90
138	70
139	999
140	110
141	50
180	10
195	1
196	15
