Mass spectrum: D-12-TRIMETHYLSILOXY-CIS-9-OCTADECENOICACID TRIMETHYLSILYL ESTER; EI-MS
Name: D-12-TRIMETHYLSILOXYOLEIC ACID TRIMETHYLSILYL ESTER
Formula: C24H50O3Si2
Exact mass: 442.32985
Instrument type: EI-MS
m/z	relative intensity
43	14
45	22
47	14
55	24
56	14
67	44
69	51
71	1
73	540
74	51
75	200
76	1
79	14
81	51
83	22
91	1
93	14
95	37
97	133
103	17
109	14
117	29
129	81
147	5
149	14
187	999
188	162
189	3
204	14
217	37
296	14
328	23
329	51
330	14
337	14
357	2
411	37
427	29
