Mass spectrum: 2-METHYLBUTYL PROPIONATE; EI-MS
Formula: C8H16O2
Exact mass: 144.11503
Instrument type: EI-MS
m/z	relative intensity
26	18
27	179
28	48
29	436
30	11
31	25
39	62
40	10
41	129
42	88
43	155
45	18
55	143
56	34
57	999
58	31
70	368
71	56
75	36
85	27
86	17
87	77
88	18
