Mass spectrum: METHYL CINNAMATE; EI-MS
Formula: C10H10O2
Exact mass: 162.06808
Instrument type: EI-MS
m/z	relative intensity
15	66
26	10
27	22
29	46
30	11
38	15
39	37
50	108
51	282
52	35
53	14
59	14
62	21
63	62
65	15
74	46
75	60
76	72
77	447
78	37
85	12
91	38
101	16
102	168
103	618
104	80
105	10
117	24
121	14
130	19
131	999
132	101
147	14
161	186
162	496
163	54
