Mass spectrum: 2-HYDROXY-5-METHOXYACETOPHENONE; EI-MS
Formula: C9H10O3
Exact mass: 166.06299
Instrument type: EI-MS
m/z	relative intensity
43	66
65	22
77	44
95	94
105	53
108	70
123	95
133	82
136	19
148	42
151	999
152	94
166	863
167	78
