Mass spectrum: 2,4,6-TRIMETHYLPHENOL; EI-MS
Formula: C9H12O
Exact mass: 136.08882
Instrument type: EI-MS
m/z	relative intensity
27	26
28	41
29	18
39	7
40	12
41	45
43	22
51	4
52	13
53	30
55	15
57	2
63	21
65	44
66	20
67	5
68	23
77	93
78	20
79	4
91	160
92	20
93	51
94	2
103	40
105	18
107	20
108	2
117	45
118	25
119	20
121	999
122	80
135	348
136	980
137	86
