Mass spectrum: HYPOXANTHINE; EI-MS
Formula: C5H4N4O
Exact mass: 136.03851
Instrument type: EI-MS
m/z	relative intensity
18	11
27	64
28	388
29	53
38	47
39	46
43	17
52	13
53	140
54	251
55	26
65	17
66	35
67	10
80	31
81	103
82	38
108	58
109	50
135	52
136	999
137	77
