Mass spectrum: 2,3,5-TRICHLOROPHENYL ACETATE; EI-MS
Formula: C8H5Cl3O2
Exact mass: 237.93551
Instrument type: EI-MS
m/z	relative intensity
35	19
37	18
38	8
42	2
43	999
44	26
60	11
61	4
62	46
63	12
72	14
73	2
74	15
83	14
85	11
96	2
97	83
98	11
99	28
107	2
109	17
132	12
133	14
134	1
135	7
160	31
162	24
167	4
169	29
171	11
196	200
197	1
198	185
199	12
200	63
202	0
238	53
240	53
242	14
