Mass spectrum: TERT-BUTOXYTRIMETHYLSILANE; EI-MS
Formula: C7H18OSi
Exact mass: 146.11269
Instrument type: EI-MS
m/z	relative intensity
41	68
43	294
44	28
45	136
47	56
57	68
58	186
59	136
61	59
73	686
74	116
75	999
76	56
77	37
131	531
132	48
