Mass spectrum: TETRABUTYLAMMONIUM BROMIDE; EI-MS
Name: N,N,N-TRIBUTYL-1-BUTANAMINUM BROMIDE
Formula: C16H36BrN
Exact mass: 321.20311
Instrument type: EI-MS
m/z	relative intensity
57	276
79	1
80	3
84	40
86	57
100	224
126	5
128	16
136	33
142	999
143	172
184	17
185	109
186	14
242	13
