Mass spectrum: (4'AS,5'S,8'AS)-E-(+)-3-METHYL-5-((5'ALPHA-(4'-METHYL-3'-PENTENYL)-2',5'BETA,8'ABETA,TRIMETHYL-3',4',4'A,5',6',7',8',8'A-OCTAHYDRONAPHTHALENYL))-2-PENTENOIC ACID; EI-MS
Name: DYSIDEAPALAUNIC ACID
Formula: C25H40O2
Exact mass: 372.30283
Instrument type: EI-MS
m/z	relative intensity
41	386
55	260
67	122
69	999
77	51
79	119
81	316
83	19
91	124
93	214
95	376
97	113
100	77
105	164
107	269
108	67
109	398
111	60
119	703
120	101
121	277
122	99
123	158
133	561
134	99
135	252
137	112
145	65
147	221
148	60
149	146
150	61
159	58
161	208
162	50
163	154
173	109
175	146
177	83
189	209
191	115
217	55
219	83
257	118
259	148
260	61
273	367
274	80
289	67
372	81
