Mass spectrum: DIETHYLHYDRAZONE METHYLETHYLKETONE; EI-MS
Name: 2-BUTANONE DIETHYLHYDRAZONE
Formula: C8H18N2
Exact mass: 142.147
Instrument type: EI-MS
m/z	relative intensity
29	257
30	50
39	36
40	1
41	110
42	999
43	43
44	16
53	11
54	32
55	71
56	5
57	189
58	11
68	12
70	14
71	14
72	82
73	29
85	1
86	10
99	15
113	36
127	54
128	43
141	12
142	200
143	19
