Mass spectrum: ETHYLENE GLYCOL MONO-HEXYL ETHER; EI-MS
Formula: C8H18O2
Exact mass: 146.13068
Instrument type: EI-MS
m/z	relative intensity
15	21
27	145
28	48
29	134
31	78
39	67
40	15
41	260
42	78
43	999
44	37
45	428
46	12
53	15
55	146
56	178
57	151
63	196
69	46
75	94
83	176
84	138
85	591
86	42
99	20
101	12
115	79
146	5
