Mass spectrum: DIMETHYL 4,4-DIMETHYLHEPTANE-1,7-DIOATE; EI-MS
Formula: C11H20O4
Exact mass: 216.13616
Instrument type: EI-MS
m/z	relative intensity
15	140
27	69
29	78
41	26
43	120
55	330
59	160
69	82
70	76
81	130
87	150
97	67
98	61
109	160
110	17
129	999
130	140
137	180
141	140
153	18
154	23
160	29
170	180
185	26
186	32
200	32
