Mass spectrum: ORTHO-METHYLPHENETOLE; EI-MS
Formula: C9H12O
Exact mass: 136.08882
Instrument type: EI-MS
m/z	relative intensity
27	70
29	42
39	62
41	2
50	19
51	60
52	35
53	3
63	20
64	11
65	59
66	1
77	143
78	50
79	130
80	8
89	32
90	163
91	111
92	1
107	556
108	999
109	72
121	1
136	636
137	59
