Mass spectrum: 3-PHENOXY-1,2-PROPANEDIOL; EI-MS
Formula: C9H12O3
Exact mass: 168.07864
Instrument type: EI-MS
m/z	relative intensity
27	53
29	41
31	58
39	6
41	31
43	97
45	67
51	8
56	28
57	78
61	33
65	7
66	59
71	125
77	213
78	6
79	47
91	30
94	999
95	13
99	108
107	78
108	63
119	5
142	50
143	166
168	180
