Mass spectrum: 3-PHENYLPROPIONONITRILE; EI-MS
Formula: C9H9N
Exact mass: 131.0735
Instrument type: EI-MS
m/z	relative intensity
39	134
50	96
51	135
63	6
65	173
77	77
91	999
92	12
103	39
131	308
132	58
