Mass spectrum: 3,5,5-TRIMETHYL-2-METHOXYCARBONYL-2-CYCLOHEXENONE; EI-MS
Formula: C11H16O3
Exact mass: 196.10994
Instrument type: EI-MS
m/z	relative intensity
41	263
43	48
51	62
53	203
54	132
55	152
59	86
65	47
66	55
67	250
77	112
79	88
81	84
82	931
83	261
91	68
93	101
95	77
96	55
108	73
109	181
112	999
113	75
121	74
123	51
138	59
140	437
149	196
164	686
165	331
196	323
197	42
