Mass spectrum: TRIBUTYLTIN ACETATE; EI-MS
Name: TRIBUTYLSTANNYL ACETATE
Formula: C14H30O2Sn
Exact mass: 350.12678
Instrument type: EI-MS
m/z	relative intensity
53	13
55	45
56	22
57	328
58	16
60	28
69	241
76	33
100	12
116	22
117	87
118	78
119	206
120	100
121	189
122	12
123	40
125	33
126	17
131	58
132	15
133	94
134	58
135	154
136	54
137	184
138	14
139	41
141	32
145	14
147	21
149	24
153	11
155	13
169	43
171	26
173	134
174	92
175	481
176	258
177	741
178	229
179	694
180	40
181	197
182	10
183	114
213	11
229	63
230	44
231	127
232	68
233	182
234	41
235	64
236	19
237	47
249	11
251	20
253	25
265	10
267	20
268	10
269	30
271	11
285	32
287	37
288	53
289	513
290	394
291	841
292	477
293	999
294	136
295	153
296	40
297	152
298	18
376	12
471	11
