Mass spectrum: TERT-BUTANETHIOL; EI-MS
Formula: C4H10S
Exact mass: 90.05032
Instrument type: EI-MS
m/z	relative intensity
15	54
26	28
27	203
28	31
29	558
33	52
37	16
38	41
39	371
40	41
41	999
42	46
45	69
47	100
49	29
50	25
51	22
53	25
55	62
56	31
57	976
58	48
59	107
75	194
90	359
91	14
92	14
