Mass spectrum: 5,5-DIMETHYLHEXAN-2,4-DIONE; EI-MS
Formula: C8H14O2
Exact mass: 142.09938
Instrument type: EI-MS
m/z	relative intensity
18	74
28	99
29	68
41	177
42	27
43	701
55	41
56	147
57	989
58	203
59	66
69	73
71	98
83	34
84	301
85	999
86	195
87	53
98	44
99	54
112	42
113	22
114	131
127	53
142	565
143	53
