Mass spectrum: DIMETHYLAMINE; EI-MS
Formula: C2H7N
Exact mass: 45.05785
Instrument type: EI-MS
m/z	relative intensity
15	36
29	23
30	68
31	20
38	13
39	18
40	48
41	40
42	144
43	123
44	999
45	576
46	19
