Mass spectrum: ANISALDEHYDE; EI-MS
Name: 4-METHOXYBENZALDEHYDE
Formula: C8H8O2
Exact mass: 136.05243
Instrument type: EI-MS
m/z	relative intensity
37	80
38	212
39	541
40	30
41	38
43	29
49	44
50	354
51	425
52	63
53	99
61	64
62	121
63	366
64	260
65	480
66	61
73	40
74	130
75	87
76	475
77	907
78	404
79	369
89	41
90	258
91	267
92	405
93	147
94	135
104	282
105	216
107	148
108	35
118	378
119	303
120	83
121	180
135	510
136	999
137	102
149	78
