Mass spectrum: 2-(1-METHOXYBENZYL)CYCLOPENTANONE; EI-MS
Formula: C13H16O2
Exact mass: 204.11503
Instrument type: EI-MS
m/z	relative intensity
40	28
42	17
44	11
51	23
55	11
65	17
77	99
78	20
91	81
105	40
115	42
116	22
117	26
121	999
122	93
128	15
129	23
130	28
171	24
172	28
204	6
