Mass spectrum: ISOPROPYL PHENYL KETONE; EI-MS
Formula: C10H12O
Exact mass: 148.08882
Instrument type: EI-MS
m/z	relative intensity
27	17
39	23
41	27
43	14
50	20
51	76
76	9
77	257
78	20
105	999
106	69
148	21
