Mass spectrum: 2,2-DIMETHYLCYCLOHEXANONE; EI-MS
Formula: C8H14O
Exact mass: 126.10447
Instrument type: EI-MS
m/z	relative intensity
40	356
42	492
43	99
44	190
45	20
51	17
53	50
54	36
55	446
56	616
57	76
58	98
59	29
67	117
68	376
69	598
70	141
71	23
74	17
77	14
79	11
81	18
82	999
83	156
84	73
93	19
95	12
97	44
98	163
99	13
108	12
111	30
126	430
127	40
