Mass spectrum: 5-METHYL-2-HEXANONE; EI-MS
Formula: C7H14O
Exact mass: 114.10447
Instrument type: EI-MS
m/z	relative intensity
29	32
41	60
42	10
43	999
44	26
55	32
56	60
57	28
58	913
59	243
60	14
70	1
71	167
72	24
81	83
85	4
86	30
99	54
114	139
115	16
