Mass spectrum: FURFURYL BUTYRATE; EI-MS
Formula: C9H12O3
Exact mass: 168.07864
Instrument type: EI-MS
m/z	relative intensity
26	10
27	100
28	10
29	10
39	31
41	100
42	48
43	479
44	20
50	10
51	10
52	447
53	300
54	10
55	20
57	20
69	30
70	48
71	300
72	10
80	279
81	999
82	146
83	10
97	90
98	440
99	29
168	236
169	17
