Mass spectrum: 2-(2-(4-NITROPHENYL)-TRANS-VINYL)PYRIDINE; EI-MS
Formula: C13H10N2O2
Exact mass: 226.07423
Instrument type: EI-MS
m/z	relative intensity
50	31
51	84
52	62
62	1
63	47
64	15
75	39
76	5
77	100
78	76
79	98
89	6
90	38
101	21
102	22
103	1
104	20
114	11
139	10
140	1
141	26
149	10
150	16
151	5
152	101
153	63
154	24
166	1
167	62
168	16
177	18
178	19
179	663
180	148
181	17
195	1
210	18
225	999
226	519
227	77
