Mass spectrum: BETA-SELINENE; EI-MS
Formula: C15H24
Exact mass: 204.1878
Instrument type: EI-MS
m/z	relative intensity
27	130
28	25
29	190
38	1
39	143
40	40
41	340
42	0
43	130
44	5
50	8
51	3
52	18
53	140
54	5
55	17
56	22
57	21
58	30
59	1
63	10
64	5
65	47
66	0
67	157
68	67
69	110
70	1
71	8
77	120
78	31
79	2
80	342
81	165
82	125
83	0
84	17
85	6
91	142
92	16
93	999
94	150
95	122
96	3
97	10
103	8
104	5
105	11
106	38
107	201
108	63
109	2
110	25
111	15
115	8
117	0
119	91
120	28
121	302
122	1
123	46
124	5
128	10
129	1
131	6
133	40
134	33
135	7
136	56
137	13
138	30
145	1
146	6
147	127
148	42
149	2
150	5
159	5
161	58
162	1
163	6
175	8
176	6
189	0
190	5
204	90
205	16
206	60
