Mass spectrum: 4-NITROPHENYLACETIC ACID TRIMETHYLSILYL ESTER; EI-MS
Formula: C11H15NO4Si
Exact mass: 253.07703
Instrument type: EI-MS
m/z	relative intensity
43	25
44	28
45	71
47	4
57	25
59	10
61	25
63	4
73	999
74	104
75	507
76	5
77	14
78	28
82	32
89	8
90	71
106	17
117	46
179	1
194	39
209	212
210	28
238	21
239	35
