Mass spectrum: 1-PIPEROYLPYRROLIDINE; EI-MS
Name: N-(5-(3,4-METHYLENEDIOXYPHENYL)-2,4-PENTADIENOYL)PYRROLIDINE
Formula: C16H17NO3
Exact mass: 271.12084
Instrument type: EI-MS
m/z	relative intensity
144	12
171	112
172	194
173	34
174	146
200	175
201	999
202	27
203	15
271	797
272	190
