Mass spectrum: 2-ETHYLTHIOPHENE; EI-MS
Formula: C6H8S
Exact mass: 112.03467
Instrument type: EI-MS
m/z	relative intensity
27	20
29	18
39	110
41	70
45	470
46	10
47	39
51	29
52	20
53	448
54	10
58	60
59	18
65	31
66	20
67	150
69	51
70	20
71	70
84	169
85	88
86	20
96	20
97	999
98	338
99	349
100	20
109	20
110	40
111	428
112	809
113	200
