Mass spectrum: 1,1-DICHLORO-4-METHYL-1-TRIMETHYLSILYL-2-PENTANOL; EI-MS
Formula: C9H20Cl2OSi
Exact mass: 242.06605
Instrument type: EI-MS
m/z	relative intensity
41	362
43	999
45	539
55	200
56	465
57	141
58	256
59	443
69	702
73	934
74	305
75	442
81	148
87	253
93	277
95	126
110	130
152	160
154	127
163	126
164	69
165	63
166	20
169	17
183	54
185	29
187	22
191	102
192	13
193	42
198	10
206	42
208	20
