Mass spectrum: 1-INDANONE; EI-MS
Formula: C9H8O
Exact mass: 132.05751
Instrument type: EI-MS
m/z	relative intensity
38	16
39	62
43	41
50	14
51	256
52	36
61	10
62	3
63	83
64	10
74	74
75	5
76	140
77	243
78	244
79	1
89	28
102	89
103	443
104	84
105	111
131	281
132	999
133	103
