Mass spectrum: 3-BENZYLAMINO-2-METHOXYMETHYL-2-BUTEN-4-OLIDE; EI-MS
Formula: C13H15NO3
Exact mass: 233.10519
Instrument type: EI-MS
m/z	relative intensity
35	1
37	1
38	4
39	41
40	3
41	27
42	9
43	18
44	5
45	28
46	1
50	7
51	26
52	19
53	17
54	10
55	18
56	6
57	24
58	3
59	4
60	7
61	1
62	4
63	21
64	8
65	125
66	12
67	6
68	10
69	33
70	10
71	15
72	4
73	9
74	2
75	1
76	2
77	18
78	11
79	5
80	6
81	13
82	9
83	12
84	6
85	7
86	2
87	3
88	2
89	33
90	20
91	999
92	105
93	6
94	3
95	6
96	5
97	11
98	5
99	5
100	4
101	4
102	4
103	6
104	33
105	15
106	12
107	4
108	2
109	3
110	3
111	5
112	5
113	6
114	3
115	20
116	15
117	10
118	3
121	3
122	1
123	5
124	6
125	4
126	6
127	5
128	7
129	17
130	13
131	6
132	3
135	2
136	4
137	6
138	2
139	3
140	2
141	3
142	15
143	32
144	24
145	6
146	1
147	1
148	1
150	1
152	2
153	2
154	3
155	8
156	71
157	68
158	82
159	13
160	1
163	1
165	2
166	1
167	18
168	2
170	1
171	6
172	18
173	11
174	7
175	2
180	1
182	2
183	5
184	14
185	7
186	8
187	1
188	7
189	2
190	3
191	2
192	2
194	2
195	1
196	1
197	1
198	2
199	3
200	86
201	317
202	178
203	218
204	31
211	2
213	3
214	3
216	1
217	1
218	2
220	2
225	2
227	2
230	1
232	15
233	139
234	22
235	4
236	2
