Mass spectrum: 1,3,5-TRI-O-ACETYL-2,4,6-TRI-O-METHYLMANNITOL; EI-MS
Formula: C15H26O9
Exact mass: 350.15768
Instrument type: EI-MS
m/z	relative intensity
43	999
45	220
58	10
71	120
74	70
75	50
85	10
87	130
88	10
89	20
99	80
100	10
101	320
102	40
111	10
117	730
127	80
129	580
143	10
157	40
159	40
161	320
189	40
201	50
203	10
217	40
233	200
