Mass spectrum: BIS(BUTOXYETHYL)ETHER; EI-MS
Formula: C12H26O3
Exact mass: 218.18819
Instrument type: EI-MS
m/z	relative intensity
44	76
45	753
54	78
55	233
56	999
57	47
58	121
71	4
72	60
73	42
75	129
85	12
87	67
89	54
100	105
101	13
103	25
131	22
144	16
145	3
219	18
