Mass spectrum: METHYL NITRITE; EI-MS
Formula: CH3NO2
Exact mass: 61.01638
Instrument type: EI-MS
m/z	relative intensity
15	126
18	35
28	36
29	338
30	999
31	440
32	289
60	32
61	102
