Mass spectrum: 5-DIETHOXYMETHYL-3-(DIETHOXYPHOSPHORYL)METHYL-2-ISOXAZOLINE; EI-MS
Formula: C13H26NO6P
Exact mass: 323.14977
Instrument type: EI-MS
m/z	relative intensity
31	29
35	66
41	17
42	17
43	18
45	37
47	268
54	21
55	16
57	37
65	32
75	445
76	17
81	40
82	14
83	22
85	14
95	16
96	13
97	26
103	999
104	61
108	13
109	26
122	55
125	37
146	29
150	16
152	14
164	63
176	29
180	13
192	26
220	49
222	24
250	33
278	88
279	12
