Mass spectrum: 2-TERT-BUTYLCYCLOHEXYL ACETATE(AXIAL-EQUAT0RIAL); EI-MS
Formula: C12H22O2
Exact mass: 198.16198
Instrument type: EI-MS
m/z	relative intensity
43	25
54	11
56	47
57	999
58	43
61	168
67	177
68	3
70	11
80	184
81	77
82	97
83	132
84	11
95	24
99	2
117	126
123	147
124	23
138	6
139	22
141	26
142	29
143	4
144	42
