Mass spectrum: PENTACOSANE; EI-MS
Formula: C25H52
Exact mass: 352.4069
Instrument type: EI-MS
m/z	relative intensity
27	40
29	145
39	24
41	317
42	95
43	887
44	13
53	10
54	23
55	239
56	121
57	999
58	26
67	22
68	23
69	132
70	102
71	565
72	22
82	20
83	101
84	45
85	318
86	13
97	47
98	26
99	72
111	17
112	16
113	37
126	17
127	24
140	10
141	18
155	17
169	14
