Mass spectrum: 9-ANTHRALDEHYDE; EI-MS
Formula: C15H10O
Exact mass: 206.07316
Instrument type: EI-MS
m/z	relative intensity
27	11
28	11
29	25
39	26
50	33
51	33
62	34
63	60
74	57
75	69
76	90
77	16
86	32
87	52
88	109
89	105
98	39
99	28
100	11
101	10
102	11
103	18
110	15
111	17
122	14
125	11
126	34
127	14
128	12
139	20
149	19
150	118
151	149
152	102
153	12
174	49
175	67
176	396
177	303
178	999
179	153
180	13
205	305
206	566
207	91
