Mass spectrum: METHYL ISOBUTYL ETHER; EI-MS
Formula: C5H12O
Exact mass: 88.08882
Instrument type: EI-MS
m/z	relative intensity
14	29
15	139
26	29
27	12
28	23
29	161
30	32
31	4
38	15
39	100
40	21
41	16
42	53
43	80
45	999
46	2
47	75
55	25
56	30
57	2
73	20
88	60
