Mass spectrum: DIBUTYL TIN MALEATE; EI-MS
Formula: C12H20O4Sn
Exact mass: 348.03836
Instrument type: EI-MS
m/z	relative intensity
44	178
52	41
53	160
54	999
55	82
56	257
98	340
99	2
105	26
121	22
153	20
155	3
175	36
177	41
211	20
213	2
265	29
266	18
267	58
268	3
269	84
270	11
271	33
273	2
289	9
291	13
