Mass spectrum: 1,2,4-TRICHLOROBENZENE; EI-MS
Formula: C6H3Cl3
Exact mass: 179.93003
Instrument type: EI-MS
m/z	relative intensity
109	89
110	14
111	30
144	15
145	175
146	20
147	115
149	16
180	999
181	69
182	960
183	66
184	302
185	20
186	33
