Mass spectrum: BUTYL ISOPENTANOATE; EI-MS
Name: BUTYL ISOVALERATE
Formula: C9H18O2
Exact mass: 158.13068
Instrument type: EI-MS
m/z	relative intensity
15	23
26	19
27	318
29	559
30	13
31	26
39	247
41	776
42	151
43	262
44	12
45	51
53	16
55	127
56	914
57	999
58	43
59	72
60	310
61	130
69	24
73	13
85	922
86	54
87	177
101	27
102	29
103	504
104	23
115	17
116	30
