Mass spectrum: 1,3,5-TRIMETHYLBENZENE; EI-MS
Name: MESITYLENE
Formula: C9H12
Exact mass: 120.0939
Instrument type: EI-MS
m/z	relative intensity
15	11
27	49
38	13
39	104
40	10
41	35
50	30
51	77
52	25
53	33
58	14
59	19
62	13
63	39
65	44
74	12
75	11
77	138
78	43
79	59
89	13
91	113
92	18
102	12
103	58
104	30
105	999
106	93
115	30
117	23
119	150
120	621
121	53
