Mass spectrum: BUTYL BENZOATE; EI-MS
Formula: C11H14O2
Exact mass: 178.09938
Instrument type: EI-MS
m/z	relative intensity
26	11
27	109
29	95
39	70
41	121
43	13
50	75
51	227
52	14
55	32
56	235
57	16
74	15
75	14
76	28
77	547
78	38
79	73
105	999
106	85
122	160
123	574
124	36
135	10
178	12
