Mass spectrum: HYDRATROPIC ACID; EI-MS
Formula: C9H10O2
Exact mass: 150.06808
Instrument type: EI-MS
m/z	relative intensity
39	68
43	20
45	59
46	17
50	56
51	153
52	32
53	2
61	22
62	21
63	134
65	3
69	17
74	21
75	17
76	2
77	272
78	141
79	197
80	2
89	19
91	117
102	20
103	13
104	69
105	999
106	114
107	2
150	210
151	20
