Mass spectrum: ISOPROPYL MYRISTATE; EI-MS
Name: ISOPROPYL TETRADECANOATE
Formula: C17H34O2
Exact mass: 270.25588
Instrument type: EI-MS
m/z	relative intensity
27	110
29	168
39	70
41	475
42	156
43	999
44	26
45	33
53	21
54	28
55	330
56	101
57	388
58	21
59	161
60	561
61	150
67	36
68	25
69	190
70	55
71	192
72	11
73	263
74	29
81	35
82	20
83	122
84	73
85	127
87	72
95	29
96	17
97	90
98	83
99	32
101	32
102	580
103	81
109	17
111	42
112	19
113	17
115	41
116	13
125	24
129	132
130	13
139	11
143	26
157	10
166	13
168	13
171	23
185	81
199	13
211	214
212	27
228	348
229	239
230	31
270	12
