Mass spectrum: 3-METHYL-3-(TRIMETHYLSILYL)OXYGLUTARIC ACID BIS(TRIMETHYLSILYL) ESTER; EI-MS
Name: DI(TRIMETHYLSILYL) 3-METHYL-3-TRIMETHYLSILOXYPENTANEDIOATE
Formula: C15H34O5Si3
Exact mass: 378.1714
Instrument type: EI-MS
m/z	relative intensity
43	52
45	104
55	70
73	999
74	100
75	297
83	55
85	5
109	155
115	209
117	72
133	6
147	480
148	75
149	78
183	7
199	217
203	100
231	178
247	33
248	72
273	154
363	89
