Mass spectrum: CIS-3-HEXENYL VALERATE; EI-MS
Formula: C11H20O2
Exact mass: 184.14633
Instrument type: EI-MS
m/z	relative intensity
27	135
29	226
39	136
41	384
42	55
43	32
53	53
54	72
55	223
56	30
57	463
58	18
67	784
68	48
69	13
79	11
81	58
82	999
83	117
85	511
86	25
103	14
