Mass spectrum: METHYL HEXANOATE; EI-MS
Formula: C7H14O2
Exact mass: 130.09938
Instrument type: EI-MS
m/z	relative intensity
15	85
26	12
27	154
29	131
31	21
39	119
41	221
42	113
43	399
44	15
45	20
53	15
55	127
56	17
57	42
59	212
69	30
70	38
71	86
73	12
74	999
75	51
87	325
88	45
99	199
100	12
101	80
