Mass spectrum: 4-METHYL-5-THIAZOLEETHANOL; EI-MS
Formula: C6H9NOS
Exact mass: 143.04048
Instrument type: EI-MS
m/z	relative intensity
31	39
45	171
53	31
55	20
68	31
71	32
72	51
80	10
85	322
86	72
87	21
98	22
99	11
100	40
112	999
113	722
114	107
115	31
125	11
143	444
144	51
145	23
