Mass spectrum: 2-SEC-BUTYL-1,1-DIETHYLHYDRAZINE; EI-MS
Formula: C8H20N2
Exact mass: 144.16265
Instrument type: EI-MS
m/z	relative intensity
27	63
28	61
29	149
30	5
31	63
39	13
40	6
41	5
42	114
43	23
44	137
45	2
55	14
56	36
57	46
58	5
59	434
60	17
70	10
71	2
72	85
73	62
87	999
88	6
99	8
115	99
116	8
129	4
144	266
145	32
