Mass spectrum: ORTHO-CYANOBENZALDEHYDE; EI-MS
Formula: C8H5NO
Exact mass: 131.03711
Instrument type: EI-MS
m/z	relative intensity
27	24
29	30
37	26
38	24
39	34
49	19
50	149
51	89
51.5	15
52	33
61	14
62	14
63	16
73	14
74	48
75	150
76	381
77	39
102	310
103	999
104	244
105	15
130	231
131	81
132	14
