Mass spectrum: DIMETHYLHYDRAZONE VALERALDEHYDE; EI-MS
Name: PENTANAL DIMETHYLHYDRAZONE
Formula: C7H16N2
Exact mass: 128.13135
Instrument type: EI-MS
m/z	relative intensity
27	194
29	125
30	100
39	8
41	175
42	462
43	488
44	999
45	362
46	41
55	55
56	8
57	55
58	88
70	28
71	16
72	32
83	24
84	31
85	81
86	839
87	48
99	175
100	3
113	113
114	10
127	22
128	66
129	61
