Mass spectrum: 2-BUTOXYETHANOL; EI-MS
Name: ETHYLENE GLYCOL MONOBUTYL ETHER
Formula: C6H14O2
Exact mass: 118.09938
Instrument type: EI-MS
m/z	relative intensity
27	37
28	21
29	428
31	78
41	377
42	17
43	36
44	20
45	485
55	40
56	92
57	999
58	41
63	20
71	33
72	12
73	11
75	52
87	110
100	14
118	2
