Mass spectrum: HEPTANAL DIISOPENTYL ACETAL; EI-MS
Name: HEPTANAL DIISOAMYL ACETAL
Formula: C17H36O2
Exact mass: 272.27153
Instrument type: EI-MS
m/z	relative intensity
27	48
29	89
31	10
39	3
41	132
42	38
43	562
44	2
55	117
56	14
57	26
69	3
70	42
71	999
72	53
97	2
117	23
185	142
186	16
187	13
188	12
