Mass spectrum: 1,9,9-TRIMETHYL-6-METHYLENE-CIS-ANTI-CIS-TRICYCLO(6.3.0.0(3,7))UNDECAN-2-ONE; EI-MS
Formula: C15H22O
Exact mass: 218.16707
Instrument type: EI-MS
m/z	relative intensity
80	394
81	147
93	18
95	9
96	28
106	50
107	18
108	10
109	353
110	92
111	18
120	2
121	19
122	18
124	46
136	2
137	28
138	28
139	326
140	4
147	32
149	32
150	23
162	2
175	18
183	37
200	46
203	7
204	18
216	37
217	28
218	999
219	124
220	37
