Mass spectrum: DIMETHYL SUCCINATE; EI-MS
Formula: C6H10O4
Exact mass: 146.05791
Instrument type: EI-MS
m/z	relative intensity
14	9
15	434
16	4
26	29
27	121
28	118
29	68
30	9
31	22
39	6
41	38
42	39
43	35
44	4
45	77
53	4
54	3
55	565
56	57
57	52
58	13
59	464
60	115
71	2
72	7
74	4
82	2
83	10
84	6
85	11
86	16
87	158
88	11
91	1
99	5
101	11
113	2
114	286
115	999
116	66
117	8
