Mass spectrum: META METHOXYTOLUENE; EI-MS
Name: META METHYL ANISOLE
Formula: C8H10O
Exact mass: 122.07316
Instrument type: EI-MS
m/z	relative intensity
15	11
27	49
38	28
39	160
41	21
50	50
51	106
52	57
53	59
62	21
63	63
64	20
65	99
77	381
78	87
79	306
80	21
89	29
90	21
91	603
92	284
93	82
107	220
106	21
121	160
122	999
123	87
