Mass spectrum: DIISOBUTYL ETHER; EI-MS
Formula: C8H18O
Exact mass: 130.13577
Instrument type: EI-MS
m/z	relative intensity
27	32
29	95
41	145
43	4
56	56
57	999
58	53
87	8
130	30
