Mass spectrum: 1,3-DIMETHOXYPROPANE; EI-MS
Formula: C5H12O2
Exact mass: 104.08373
Instrument type: EI-MS
m/z	relative intensity
39	40
40	10
41	124
42	16
43	45
44	15
45	999
46	4
47	8
55	5
56	4
57	1
58	25
59	14
70	3
71	2
72	672
73	45
74	12
75	4
85	1
89	2
101	1
103	1
