Mass spectrum: 2-PENTENOL; EI-MS
Formula: C5H10O
Exact mass: 86.07316
Instrument type: EI-MS
m/z	relative intensity
39	58
40	29
41	195
42	58
43	91
44	263
45	39
53	26
55	114
57	999
59	39
67	55
68	179
71	39
86	26
