Mass spectrum: FENCHYL ALCOHOL; EI-MS
Name: 1,3,3-TRIMETHYLBICYCLO(2.2.1)HEPTAN-2-OL
Formula: C10H18O
Exact mass: 154.13577
Instrument type: EI-MS
m/z	relative intensity
43	54
55	17
56	17
57	18
67	28
68	13
69	89
70	26
71	110
72	207
73	23
80	999
81	809
82	190
83	106
84	157
85	34
86	12
92	37
93	95
94	18
95	28
96	68
97	32
98	43
99	17
107	90
108	20
109	15
110	19
111	156
112	26
121	89
122	12
123	61
125	36
136	68
137	12
139	60
154	75
155	12
