Mass spectrum: 5-METHYLINDOLE; EI-MS
Formula: C9H9N
Exact mass: 131.0735
Instrument type: EI-MS
m/z	relative intensity
27	38
28	20
38	31
39	65
51	145
52	89
65	101
655	74
77	185
78	42
102	59
103	106
104	36
130	999
131	832
132	81
