Mass spectrum: ETHYL 2-ETHOXYCARBONYL-3-METHYL-4-PHENYLPENTANOATE; EI-MS
Formula: C17H24O4
Exact mass: 292.16746
Instrument type: EI-MS
m/z	relative intensity
79	42
87	30
88	29
91	6
103	21
104	39
105	648
106	9
113	10
114	12
115	47
117	14
129	31
131	23
132	999
133	18
141	34
142	12
145	29
160	18
161	167
173	41
184	11
201	11
202	11
247	39
292	2
