Mass spectrum: 4-ISOPROPYLPYRIDINE; EI-MS
Formula: C8H11N
Exact mass: 121.08915
Instrument type: EI-MS
m/z	relative intensity
39	92
51	157
77	151
78	14
79	145
106	999
120	146
121	565
