Mass spectrum: ALPHA-ACETYL-GAMMA-BUTYROLACTONE; EI-MS
Formula: C6H8O3
Exact mass: 128.04734
Instrument type: EI-MS
m/z	relative intensity
15	86
26	34
27	115
28	42
29	56
31	13
38	17
39	110
40	25
41	269
42	128
43	999
44	162
45	21
53	23
55	154
56	18
57	22
58	79
68	52
69	159
70	26
71	34
84	26
85	115
86	485
87	30
95	18
110	18
111	16
113	27
126	11
128	26
