Mass spectrum: HEXADECANOIC ACID HEXYL ESTER; EI-MS
Formula: C22H44O2
Exact mass: 340.33413
Instrument type: EI-MS
m/z	relative intensity
28	18
56	116
60	92
61	669
69	13
71	59
73	193
84	999
85	222
98	60
129	111
141	18
145	23
157	41
207	18
213	32
239	72
256	83
257	331
258	40
340	41
