Mass spectrum: ETHYL PHENYLACETATE; EI-MS
Formula: C10H12O2
Exact mass: 164.08373
Instrument type: EI-MS
m/z	relative intensity
27	33
29	204
39	57
41	16
45	13
50	12
51	25
63	30
64	12
65	106
77	11
89	30
90	24
91	999
92	118
105	21
119	26
164	199
165	21
