Mass spectrum: CIS-2-BENZYL-6-METHYLCYCLOHEXANONE; EI-MS
Formula: C14H18O
Exact mass: 202.13577
Instrument type: EI-MS
m/z	relative intensity
42	212
43	357
55	177
56	240
57	497
65	137
91	999
92	208
104	215
111	415
115	133
117	366
129	149
131	217
145	339
146	209
159	461
187	118
202	893
203	137
