Mass spectrum: N-2,4-DINITROPHENYLPIPERIDINE; EI-MS
Formula: C11H13N3O4
Exact mass: 251.09061
Instrument type: EI-MS
m/z	relative intensity
55	76
67	154
75	55
76	94
77	68
103	73
149	89
158	6
159	60
175	68
180	59
189	12
190	53
203	116
204	316
234	999
235	129
251	188
252	31
