Mass spectrum: 3-METHYL-1,2,3,4-TETRAHYDRO-GAMMA-CARBOLINE; EI-MS
Formula: C12H14N2
Exact mass: 186.1157
Instrument type: EI-MS
m/z	relative intensity
42	48
44	12
51	12
63	1
77	21
89	12
91	10
92	3
93	60
102	19
115	53
116	2
117	14
128	20
130	13
140	1
142	40
143	999
144	120
145	1
168	12
169	21
183	20
185	4
186	267
