Mass spectrum: DIETHYL SUCCINATE; EI-MS
Formula: C8H14O4
Exact mass: 174.08921
Instrument type: EI-MS
m/z	relative intensity
27	136
28	129
29	399
30	21
31	21
43	37
45	90
55	147
56	90
57	39
73	156
74	90
100	46
101	999
102	127
128	139
129	599
130	45
