Mass spectrum: BUTYL BENZOATE; EI-MS
Formula: C11H14O2
Exact mass: 178.09938
Instrument type: EI-MS
m/z	relative intensity
40	31
50	36
51	139
52	11
55	44
56	306
57	22
73	10
76	25
77	423
78	36
79	55
105	999
106	88
122	172
123	641
124	52
135	13
178	15
