Mass spectrum: BENZO(G,H,I)PERYLENE; EI-MS
Formula: C22H12
Exact mass: 276.0939
Instrument type: EI-MS
m/z	relative intensity
55	67
56	18
57	63
59	13
67	18
69	76
70	13
71	13
81	22
83	18
91	49
92	58
100	18
101	18
111	45
112	76
113	67
114	40
123	58
124	193
125	206
126	36
135	63
136	363
137	780
138	830
139	22
226	22
228	103
229	13
248	18
250	13
252	49
272	63
273	54
274	256
275	161
276	999
277	238
278	18
