Mass spectrum: 2,4-DINITROPHENYLACETIC ACID; EI-MS
Formula: C8H6N2O6
Exact mass: 226.02259
Instrument type: EI-MS
m/z	relative intensity
38	5
39	103
40	10
41	15
42	15
43	23
44	798
45	44
46	13
50	12
51	69
52	123
53	50
54	11
55	15
56	5
57	7
59	7
60	6
62	5
63	159
64	84
65	55
66	45
67	10
68	10
69	20
71	8
73	5
75	17
76	28
77	126
78	175
79	64
80	40
81	12
88	10
89	425
90	234
91	93
92	37
93	12
94	17
95	8
103	8
104	13
105	49
106	62
107	60
108	30
118	102
119	212
120	30
121	12
122	7
133	25
134	47
135	48
136	33
137	27
138	7
148	30
149	19
150	11
151	6
152	7
161	5
162	6
163	8
164	15
165	999
166	97
167	12
168	7
180	138
181	40
182	64
183	5
184	9
196	14
209	12
210	5
226	46
227	5
