Mass spectrum: DUROQUINONE; EI-MS
Name: TETRAMETHYL-1,4-BENZOQUINONE
Formula: C10H12O2
Exact mass: 164.08373
Instrument type: EI-MS
m/z	relative intensity
15	24
17	17
18	75
26	43
27	404
28	162
29	52
32	21
38	35
39	428
40	31
41	69
43	55
50	112
51	217
52	153
53	426
54	536
55	91
62	14
63	39
64	11
65	68
66	30
67	100
77	145
78	33
79	65
80	17
81	18
82	154
83	38
91	202
92	31
93	520
94	47
103	15
105	26
107	96
108	178
109	22
110	45
117	15
119	19
121	999
122	91
135	228
136	626
137	63
149	26
164	852
165	102
166	19
