Mass spectrum: METHYL LEVULINATE; EI-MS
Name: BETA-ACETYLPROPIONIC ACID METHYL ESTER
Formula: C6H10O3
Exact mass: 130.06299
Instrument type: EI-MS
m/z	relative intensity
15	20
27	10
28	26
29	2
41	15
42	15
43	999
44	2
45	15
55	158
56	51
57	16
58	10
59	102
60	10
71	8
75	20
81	10
87	77
88	20
89	15
98	112
99	418
100	3
115	332
116	20
130	128
