Mass spectrum: 2,4-THIAZOLIDINEDIONE; EI-MS
Formula: C3H3NO2S
Exact mass: 116.98845
Instrument type: EI-MS
m/z	relative intensity
12	11
13	22
14	68
15	11
17	12
18	55
27	26
28	77
29	45
30	11
32	60
33	14
40	11
42	114
43	92
44	45
45	245
46	999
47	40
48	47
60	19
70	20
74	422
75	12
76	19
89	21
117	536
118	26
119	25
