Mass spectrum: CIS-5-(6-FORMYLHEXYL)-TRANS-4-(TRANS-3-HYDROXY-1-OCTENYL)-2,REF.-3-DIPHENYLISOXAZOLIDINE; EI-MS
Name: (3S,4S,5R)-5-(6-FORMYLHEXYL)-4-(3-HYDROXY-1-OCTENYL)-2,3-DIPHENYLISOXAZOLIDINE
Formula: C30H41NO3
Exact mass: 463.30864
Instrument type: EI-MS
m/z	relative intensity
42	167
44	178
55	149
69	99
77	272
81	96
91	653
104	139
105	185
180	309
181	508
182	485
196	308
197	399
198	999
199	148
220	219
463	564
464	196
465	175
