Mass spectrum: 3,5-DINITROBENZOYL CHLORIDE; EI-MS
Formula: C7H3ClN2O5
Exact mass: 229.97305
Instrument type: EI-MS
m/z	relative intensity
30	226
37	37
38	41
46	69
49	15
50	34
53	23
61	35
62	56
63	120
73	62
74	388
75	843
76	61
87	11
91	33
101	21
103	123
104	11
110	20
119	28
120	27
137	38
138	11
139	13
148	15
149	224
150	19
179	15
195	999
196	87
197	14
