Mass spectrum: DL-HISTIDINE MONOHYDROCHLORIDE MONOHYDRATE; EI-MS
Formula: C6H12ClN3O3
Exact mass: 209.05672
Instrument type: EI-MS
m/z	relative intensity
17	17
18	72
36	525
38	171
81	47
82	999
83	54
94	20
109	13
110	172
111	33
155	49
156	27
