Mass spectrum: DIISOPROPYL MALONATE; EI-MS
Formula: C9H16O4
Exact mass: 188.10486
Instrument type: EI-MS
m/z	relative intensity
27	23
28	12
41	64
42	5
43	999
44	35
45	120
57	3
59	434
60	227
61	29
69	2
87	545
88	20
102	198
103	2
105	720
106	26
111	280
112	2
118	47
129	638
130	47
131	8
146	23
147	102
159	12
172	47
