Mass spectrum: ORTHO-METHOXYPHENOL; EI-MS
Name: 2-METHOXYPHENOL
Formula: C7H8O2
Exact mass: 124.05243
Instrument type: EI-MS
m/z	relative intensity
27	14
28	16
29	11
38	13
39	31
50	30
51	42
52	53
53	79
55	17
62	19
63	37
64	15
65	41
66	10
77	26
79	12
80	16
81	404
82	25
95	20
109	904
110	63
123	14
124	999
125	82
