Mass spectrum: (-)-2,6,6-TRIMETHYL-2(R)-VINYL-5(R)-HYDROXYTETRAHYDROPYRAN; EI-MS
Formula: C10H18O2
Exact mass: 170.13068
Instrument type: EI-MS
m/z	relative intensity
41	275
42	55
43	465
44	5
45	45
51	45
52	30
53	16
54	45
55	135
56	60
57	10
58	25
59	795
60	50
65	4
66	45
67	320
68	999
69	14
70	80
71	100
72	65
77	5
78	20
79	175
80	30
81	12
82	20
83	95
84	60
85	5
92	20
93	45
94	715
95	10
96	20
97	60
99	30
102	5
107	20
108	15
109	40
111	3
112	85
119	15
125	35
135	3
137	50
143	35
153	45
155	4
170	15
