Mass spectrum: ETHINYLESTRADIOL-3-TMS; EI-MS
Formula: C23H32O2Si
Exact mass: 368.21716
Instrument type: EI-MS
m/z	relative intensity
32	103
40	16
68	12
73	86
81	11
93	13
95	12
97	16
105	15
107	16
109	11
119	11
121	21
124	13
136	21
137	12
163	22
177	48
178	11
179	39
180	25
189	14
192	47
193	30
194	14
201	13
203	38
204	13
205	138
206	34
207	21
215	13
216	17
217	57
218	210
219	72
220	24
229	52
230	46
231	144
232	249
233	63
234	17
242	27
243	41
244	144
245	66
246	23
255	14
256	14
257	173
258	78
259	22
267	11
268	10
269	24
270	20
271	38
272	47
273	13
281	19
282	21
283	48
284	33
285	999
286	283
287	95
288	16
296	11
297	15
298	30
299	22
300	222
301	60
302	15
309	14
311	30
312	11
313	12
314	18
322	12
325	11
327	42
328	13
340	24
341	20
342	469
343	136
344	39
350	24
352	12
353	76
354	26
355	11
367	18
368	976
369	296
370	77
371	16
