Mass spectrum: 4-METHOXYBENZOIC ACID METHYL ESTER; EI-MS
Formula: C9H10O3
Exact mass: 166.06299
Instrument type: EI-MS
m/z	relative intensity
77	82
92	34
107	75
135	999
136	90
165	22
166	655
167	68
168	10
