Mass spectrum: DIMETHYL 5,9,14,18,19-PENTAOXO-5,6,7,8,9,14,15,16,17,18-DECAHYDRO-7,16-METHANONAPHTHO(2,3-A:2',3'-F)CYCLODECENE-7,16-DICARBOXYLATE; EI-MS
Formula: C31H22O9
Exact mass: 538.12638
Instrument type: EI-MS
m/z	relative intensity
322	118
353	61
354	146
418	52
446	112
447	82
478	51
479	62
506	375
507	158
538	999
539	351
540	100
