Mass spectrum: DIISOPROPYL METHOXYCARBONYLMETHYL PHOSHONATE; EI-MS
Formula: C9H19O5P
Exact mass: 238.09701
Instrument type: EI-MS
m/z	relative intensity
27	30
39	20
41	80
42	7
43	250
45	40
59	60
65	2
74	90
95	80
96	30
105	5
119	30
123	730
137	999
138	8
154	60
155	800
165	90
179	15
181	60
197	40
223	20
239	10
