Mass spectrum: (E)-3-(2-FUROYLMETHYLENE)-1-PARA-TOLYL-2,5-PYRROLIDINEDIONE; EI-MS
Formula: C17H13NO4
Exact mass: 295.08446
Instrument type: EI-MS
m/z	relative intensity
38	25
39	202
51	39
52	19
65	22
67	94
75	42
76	33
86	36
89	999
90	59
96	26
97	24
98	20
99	37
133	37
135	24
137	32
165	49
172	30
189	168
190	20
199	26
227	65
250	32
295	434
296	86
