Mass spectrum: 3,5-DIMETHYLPHENOL; EI-MS
Formula: C8H10O
Exact mass: 122.07316
Instrument type: EI-MS
m/z	relative intensity
420	47
430	31
450	13
460	11
500	45
510	106
520	43
530	80
550	28
600	37
610	23
620	17
630	40
650	62
660	18
670	18
740	12
770	235
780	61
790	136
800	13
810	10
910	123
920	15
930	43
940	17
1030	28
1040	24
1050	36
1070	813
1080	65
1210	362
1220	999
1230	91
