Mass spectrum: METHYL (2R)-2-(N-((4S)-4-(1-METHYLETHYL)-2-OXAZOLIDINONE-3-CARBAMOYL)AMINO)-4-PENTENOATE; EI-MS
Formula: C13H20N2O5
Exact mass: 284.13722
Instrument type: EI-MS
m/z	relative intensity
96	18
112	75
120	10
128	21
132	16
156	16
170	15
182	37
225	449
226	57
232	20
243	999
244	125
245	16
253	12
284	89
