Mass spectrum: 3,4-DI(4-ETHOXYBENZOYL)-1,2,5-THIADIAZOLE; EI-MS
Formula: C20H18N2O4S
Exact mass: 382.09873
Instrument type: EI-MS
m/z	relative intensity
34	85
39	229
41	260
42	88
43	247
44	602
45	204
50	102
51	89
55	171
56	103
57	136
63	102
65	222
69	388
77	107
81	81
91	121
93	210
105	130
119	99
121	852
122	86
147	250
149	999
150	131
169	217
175	110
382	596
383	130
