Mass spectrum: TETRALIN; EI-MS
Formula: C10H12
Exact mass: 132.0939
Instrument type: EI-MS
m/z	relative intensity
39	72
41	20
50	32
51	101
52	24
53	29
57	22
58	19
62	17
63	63
64	81
65	110
66	13
74	18
75	17
76	18
77	97
78	100
79	18
89	28
91	484
92	41
101	10
102	32
103	89
104	999
105	106
115	146
116	66
117	161
118	16
126	14
127	45
128	100
129	68
130	23
131	157
132	682
133	78
