Mass spectrum: 1,1-DIMETHYLSILACYCLOHEXANE (D3-METHYL); EI-MS
Formula: C7H16Si
Exact mass: 128.10213
Instrument type: EI-MS
m/z	relative intensity
59	116
60	18
61	52
62	251
63	22
64	17
67	25
71	23
74	31
75	203
76	32
79	27
85	518
86	66
87	49
88	613
89	87
90	35
102	35
103	84
113	927
114	119
115	49
116	999
117	125
118	53
130	13
131	649
132	93
133	39
