Mass spectrum: 4,7-DI(PARA-METHOXYPHENYL)-6-(PYRIDIN-4-YL)-1,2,5-THIADIAZOLO(3,4-C)PYRIDINE; EI-MS
Formula: C24H18N4O2S
Exact mass: 426.11505
Instrument type: EI-MS
m/z	relative intensity
30	182
32	999
40	68
41	370
42	70
43	467
44	374
45	210
55	368
56	85
57	292
60	70
67	161
68	72
69	230
70	66
71	117
73	103
78	76
80	90
81	66
82	182
91	82
93	59
95	113
97	89
98	60
115	86
129	95
339	66
340	70
383	75
425	158
426	332
427	148
