Mass spectrum: 1,2-BIS(METHYLSILYL)ETHANE; EI-MS
Formula: C4H14Si2
Exact mass: 118.0634
Instrument type: EI-MS
m/z	relative intensity
27	26
28	47
29	53
31	47
41	32
42	37
43	310
44	161
45	771
46	50
47	26
53	20
55	53
56	44
57	50
58	29
59	141
69	29
70	23
71	102
72	999
73	351
74	64
75	132
76	15
85	20
86	53
87	41
88	182
89	170
90	50
91	12
102	15
103	100
104	12
116	29
117	117
118	64
119	15
