Mass spectrum: THIOSEMICARBAZIDE; EI-MS
Formula: CH5N3S
Exact mass: 91.02042
Instrument type: EI-MS
m/z	relative intensity
13	13
14	21
15	14
16	49
17	192
18	563
20	45
26	32
27	85
28	400
29	103
30	42
31	219
32	551
33	66
34	38
36	10
39	12
41	40
42	150
43	287
44	90
45	63
46	32
47	46
48	37
57	20
58	48
59	294
60	624
61	132
62	35
63	11
64	36
74	34
76	39
91	999
92	34
93	50
