Mass spectrum: STIGMASTEROL ACETATE; EI-MS
Formula: C31H50O2
Exact mass: 454.38108
Instrument type: EI-MS
m/z	relative intensity
18	11
41	28
43	37
55	94
57	19
67	39
69	67
71	13
77	11
79	32
81	117
82	10
83	95
91	38
93	48
94	10
95	47
97	48
105	49
106	11
107	48
108	11
109	34
117	18
119	35
120	22
121	32
123	21
129	10
131	29
133	65
134	12
135	30
137	13
139	18
143	27
144	10
145	73
146	46
147	55
148	11
149	18
157	32
158	24
159	56
160	16
161	36
171	11
173	21
175	17
185	12
187	12
189	15
199	19
201	12
211	16
213	42
214	12
227	11
228	47
229	14
253	51
254	36
255	218
256	46
257	10
267	14
281	20
282	43
283	28
286	10
296	13
351	84
352	31
379	38
380	17
382	34
394	999
395	360
396	73
397	11
