Mass spectrum: META-AMINOBENZOIC ACID; EI-MS
Name: 3-AMINOBENZOIC ACID
Formula: C7H7NO2
Exact mass: 137.04768
Instrument type: EI-MS
m/z	relative intensity
27	11
28	28
37	12
38	31
39	94
40	11
41	21
45	46
50	13
51	11
52	27
53	15
54	16
62	15
63	62
64	25
65	148
66	30
80	39
81	11
91	32
92	133
93	29
94	27
109	38
120	392
121	32
137	999
138	221
139	18
