Mass spectrum: (E)-3-BENZOYLMETHYLENE-1-PHENYL-2,5-PYRROLIDINEDIONE; EI-MS
Formula: C18H13NO3
Exact mass: 291.08954
Instrument type: EI-MS
m/z	relative intensity
38	63
39	381
50	113
51	406
52	40
63	78
64	104
65	75
66	40
67	202
75	37
76	54
77	999
78	83
91	152
105	738
106	54
115	92
116	34
119	98
171	40
199	35
263	12
291	53
292	13
