Mass spectrum: 2-ETHYL-2,5-DIMETHYL-4-HEXENAL; EI-MS
Formula: C10H18O
Exact mass: 154.13577
Instrument type: EI-MS
m/z	relative intensity
27	133
28	42
29	152
39	131
40	19
41	834
42	88
43	108
51	10
53	81
55	302
56	145
57	116
67	61
68	48
69	999
70	421
71	325
72	41
81	12
83	98
84	9
86	247
95	8
97	33
99	9
107	20
125	116
126	234
127	11
154	11
