Mass spectrum: 1,2-BIS(1-NAPHTHYL)TETRAMETHYLDISILANE; EI-MS
Formula: C24H26Si2
Exact mass: 370.1573
Instrument type: EI-MS
m/z	relative intensity
45	116
54	21
115	32
128	11
129	42
131	32
141	32
143	11
153	11
155	147
156	11
157	11
167	105
168	32
169	137
170	32
181	32
183	105
184	21
185	999
186	179
187	42
227	32
297	232
298	63
370	126
371	42
