Mass spectrum: 5-CYANO-2-METHOXYTROPONE; EI-MS
Formula: C9H7NO2
Exact mass: 161.04768
Instrument type: EI-MS
m/z	relative intensity
32	108
37	112
38	84
39	194
41	50
43	57
49	63
50	91
51	85
57	62
62	93
63	273
64	264
75	79
76	97
84	60
90	431
102	192
103	371
104	152
105	52
115	153
118	66
130	873
131	204
132	302
133	276
161	999
162	10
