Mass spectrum: 1,4-DIMETHYL-2-PIPERIDONE; EI-MS
Formula: C7H13NO
Exact mass: 127.09971
Instrument type: EI-MS
m/z	relative intensity
27	76
28	54
29	62
30	3
32	14
39	86
41	186
42	37
43	205
44	999
45	40
55	11
56	220
57	234
58	55
69	22
70	23
71	104
72	44
84	11
85	64
98	19
99	29
112	3
126	206
127	660
128	52
