Mass spectrum: 1,2,5-TRIMEHYLPYRROLE; EI-MS
Formula: C7H11N
Exact mass: 109.08915
Instrument type: EI-MS
m/z	relative intensity
15	37
27	40
28	24
40	47
41	11
42	44
43	45
51	22
52	41
53	32
54	39
55	19
56	45
65	31
66	21
67	36
77	19
78	11
79	20
92	30
93	34
94	192
95	14
106	35
107	57
108	999
109	659
110	51
