Mass spectrum: ETHYL MANDELATE; EI-MS
Formula: C10H12O3
Exact mass: 180.07864
Instrument type: EI-MS
m/z	relative intensity
29	40
31	15
45	12
56	2
57	12
70	12
77	58
79	28
80	18
105	43
106	12
107	999
108	79
180	98
181	12
