Mass spectrum: NICOTINAMIDE; EI-MS
Formula: C6H6N2O
Exact mass: 122.04801
Instrument type: EI-MS
m/z	relative intensity
44	119
49	30
50	170
51	398
52	168
53	38
75	22
76	36
77	105
78	799
79	91
94	32
104	79
105	79
106	661
107	46
122	999
123	76
