Mass spectrum: 4-BENZOYL-2,6-DIPHENYLPYRIDINE; EI-MS
Formula: C24H17NO
Exact mass: 335.13101
Instrument type: EI-MS
m/z	relative intensity
51	86
75	32
76	36
77	487
78	38
101	52
104	38
105	366
106	30
126	99
127	247
128	29
167	51
201	30
202	78
203	41
230	40
258	64
306	410
307	153
334	266
335	999
336	251
337	31
