Mass spectrum: 2,10-DIHYDROXYDICYCLOHEPTA(B,E)-(4H)-PYRAN-3,9-DIONE; EI-MS
Formula: C15H10O5
Exact mass: 270.05282
Instrument type: EI-MS
m/z	relative intensity
39	136
41	72
51	146
52	81
53	64
54	67
55	109
57	59
62	66
63	204
65	74
67	58
75	68
76	122
77	57
89	73
102	72
115	116
127	61
128	156
131	98
139	111
157	87
168	61
185	83
197	217
213	999
214	492
242	141
270	316
271	62
