Mass spectrum: 8,13,17-TRIOXO-5,6,7,8,13,14,15,16-OCTAHYDRO-6,15-METHANOBENZO(A)NAPHTO(2,3-F)CYCLODECENE; EI-MS
Formula: C23H18O3
Exact mass: 342.12559
Instrument type: EI-MS
m/z	relative intensity
77	88
104	76
105	156
115	140
128	100
129	89
141	65
145	78
152	70
158	146
181	77
186	171
197	103
198	126
209	92
210	111
297	73
314	427
315	110
342	999
343	262
