Mass spectrum: 1-ACETYLTHIOUREA; EI-MS
Formula: C3H6N2OS
Exact mass: 118.02008
Instrument type: EI-MS
m/z	relative intensity
41	24
42	101
43	999
44	72
47	18
48	25
58	13
59	72
60	147
63	12
64	15
75	30
76	537
77	20
78	34
90	26
118	910
119	47
120	45
