Mass spectrum: N-BENZOYL-PARA-NITROANILINE; EI-MS
Formula: C13H10N2O3
Exact mass: 242.06914
Instrument type: EI-MS
m/z	relative intensity
30	36
39	16
40	21
50	28
51	107
52	16
63	25
65	15
76	23
77	467
78	34
105	999
106	79
242	111
243	19
