Mass spectrum: METHYL (2-TROPONYLOXY)ACETATE; EI-MS
Formula: C10H10O4
Exact mass: 194.05791
Instrument type: EI-MS
m/z	relative intensity
37	89
38	528
39	47
41	87
42	89
43	56
44	160
50	181
51	553
52	64
53	44
59	62
62	70
63	141
64	62
65	359
66	50
76	43
77	839
78	388
79	162
94	83
105	623
106	265
107	152
122	31
123	27
134	28
135	999
136	79
163	76
179	57
194	211
195	23
