Mass spectrum: CITRACONIC ACID; EI-MS
Formula: C5H6O4
Exact mass: 130.02661
Instrument type: EI-MS
m/z	relative intensity
15	15
18	11
26	18
27	41
28	12
29	64
31	19
37	91
38	180
39	898
40	314
41	338
42	68
43	124
44	21
45	257
46	14
53	73
55	35
56	21
57	28
58	21
66	24
67	75
68	553
69	140
71	92
83	14
84	142
85	170
86	999
87	55
96	11
112	28
113	915
131	736
132	41
