Mass spectrum: PROPYLAMINE; EI-MS
Formula: C3H9N
Exact mass: 59.0735
Instrument type: EI-MS
m/z	relative intensity
15	23
18	30
26	22
27	60
28	60
29	25
30	999
31	16
39	28
41	58
42	36
43	28
44	14
56	13
58	27
59	118
60	13
