Mass spectrum: 2,4,5-TRIMETHOXYBENZOIC ACID; EI-MS
Formula: C10H12O5
Exact mass: 212.06847
Instrument type: EI-MS
m/z	relative intensity
39	24
41	19
53	31
55	18
59	48
65	27
69	38
77	24
79	25
81	19
93	28
95	41
96	23
107	22
109	53
110	76
111	21
123	22
124	16
125	55
137	225
138	26
139	42
151	57
152	25
153	16
165	43
167	18
169	156
181	16
183	17
195	53
196	29
197	606
198	60
212	999
213	113
214	16
