Mass spectrum: GLYCINE ANHYDRIDE; EI-MS
Name: 2,5-PIPERAZINEDIONE
Formula: C4H6N2O2
Exact mass: 114.04293
Instrument type: EI-MS
m/z	relative intensity
28	21
29	58
30	388
42	84
43	332
44	13
58	37
59	24
71	585
72	25
85	14
86	105
114	999
115	82
