Mass spectrum: 3-(5-TERT-BUTYL-3-ISOXAZOLYL)-1,1-DIMETHYLUREA; EI-MS
Formula: C10H17N3O2
Exact mass: 211.13208
Instrument type: EI-MS
m/z	relative intensity
15	47
18	24
27	30
28	35
29	45
30	42
39	55
40	14
41	94
42	88
43	44
44	219
45	125
53	15
55	14
56	24
57	57
67	42
68	39
69	12
71	10
72	999
73	41
87	54
94	26
97	29
111	58
123	14
125	17
126	19
127	13
139	17
140	107
141	12
151	29
154	163
155	12
167	125
168	14
211	214
212	59
