Mass spectrum: DIMETHYL (3R*,5S*,6S*)-3-PHENYL-2,3,4,5,6,7-HEXAHYDROINDEN-1(H)-ONE-5,6-DICARBOXYLATE; EI-MS
Formula: C19H20O5
Exact mass: 328.13107
Instrument type: EI-MS
m/z	relative intensity
40	81
42	81
44	80
46	71
52	171
53	85
59	999
65	88
77	432
78	286
79	95
91	204
102	88
103	338
104	288
105	249
115	212
128	124
131	205
141	105
152	140
153	94
165	375
166	192
167	357
168	65
178	123
179	129
180	92
181	153
182	29
183	26
189	30
190	13
191	32
192	18
193	21
194	40
195	30
196	12
206	14
207	38
208	87
209	540
210	99
211	36
237	15
267	14
268	224
269	84
296	86
297	37
328	55
329	12
