Mass spectrum: 1,1,3,3-TETRAMETHYLUREA; EI-MS
Formula: C5H12N2O
Exact mass: 116.09496
Instrument type: EI-MS
m/z	relative intensity
15	73
18	40
28	48
41	15
42	141
43	41
44	366
45	65
56	43
58	45
72	999
73	46
116	397
117	33
