Mass spectrum: SPIRO(3.4)SILAOCTANE; EI-MS
Formula: C7H14Si
Exact mass: 126.08648
Instrument type: EI-MS
m/z	relative intensity
27	34
28	33
29	47
31	16
39	39
41	19
42	141
43	232
44	38
45	44
53	50
54	23
55	182
56	68
57	78
58	18
59	11
66	19
67	45
68	17
69	62
70	516
71	74
72	25
81	16
82	20
83	215
84	61
85	92
86	11
95	16
96	60
97	226
98	999
99	124
100	43
126	331
127	45
128	15
