Mass spectrum: 2-DIMETHYLPROPIONIC ACID CHLOROMETHYL ESTER; EI-MS
Formula: C6H11ClO2
Exact mass: 150.04476
Instrument type: EI-MS
m/z	relative intensity
28	17
29	103
41	186
42	13
43	72
49	18
55	15
56	68
57	999
58	65
59	16
69	13
77	46
79	16
85	176
86	11
150	12
152	4
