Mass spectrum: 2,3,4,6,7-PENTAACETOXYTROPONE; EI-MS
Formula: C17H16O11
Exact mass: 396.06926
Instrument type: EI-MS
m/z	relative intensity
41	24
42	999
43	23
69	17
128	10
129	15
157	35
158	38
170	12
185	65
186	804
187	64
188	12
210	24
211	15
227	20
228	314
229	34
252	11
270	182
271	23
312	190
313	34
354	32
355	22
397	27
