Mass spectrum: PARA-ANISOYL FLUORIDE; EI-MS
Name: 4-METHOXYBENZOYL FLUORIDE
Formula: C8H7FO2
Exact mass: 154.04301
Instrument type: EI-MS
m/z	relative intensity
27	14
29	68
31	29
37	49
38	106
39	60
40	39
41	11
47	29
49	22
50	168
51	78
52	15
53	48
56	22
57	234
58	11
61	59
62	146
63	313
64	134
65	23
66	21
68	22
69	45
70	19
73	45
74	129
75	220
76	72
77	167
78	34
79	36
81	44
82	48
83	670
84	46
92	128
94	20
95	125
96	212
97	74
98	14
104	21
105	61
106	35
107	72
111	483
112	39
119	12
120	12
123	97
124	22
125	13
126	531
127	44
135	274
136	26
139	11
152	12
153	32
154	999
155	100
156	12
