Mass spectrum: NICOTINE; EI-MS
Name: 3-(1-METHYL-2-PYRROLIDINYL)PYRIDINE
Formula: C10H14N2
Exact mass: 162.1157
Instrument type: EI-MS
m/z	relative intensity
51	28
52	11
54	21
55	20
63	22
64	12
65	53
66	12
67	30
69	13
73	19
77	17
78	36
79	10
81	13
82	32
83	11
84	999
85	60
92	38
93	11
104	31
105	13
117	39
118	45
119	63
120	28
130	48
132	18
133	263
134	40
144	10
145	15
146	16
147	15
159	22
160	12
161	260
162	336
163	42
171	11
207	35
281	12
355	10
401	13
