Mass spectrum: MANNITOL; EI-MS
Formula: C6H14O6
Exact mass: 182.07904
Instrument type: EI-MS
m/z	relative intensity
14	161
26	62
27	51
28	294
29	32
30	999
32	22
38	27
40	44
41	164
43	536
44	148
45	219
47	18
55	76
56	95
57	147
58	13
59	17
60	158
61	396
62	14
69	143
71	73
72	11
73	342
74	126
75	17
81	12
83	32
85	77
86	10
87	38
91	24
99	45
103	194
104	16
111	45
115	13
117	11
129	97
133	44
147	46
165	44
183	546
184	39
