Mass spectrum: METHYL 2-(N-((BORNANE-10,2AMOYL))AMINOACETATE; EI-MS
Formula: C14H22N2O5S
Exact mass: 330.12494
Instrument type: EI-MS
m/z	relative intensity
145	12
148	27
149	38
150	160
151	999
152	133
158	76
159	198
160	27
162	20
170	17
172	25
173	25
176	12
177	133
178	39
182	31
186	64
187	10
194	22
200	29
206	38
207	16
210	16
214	35
215	248
216	35
220	11
213	12
228	100
229	12
232	25
234	27
242	237
243	35
244	17
251	196
252	27
262	23
265	21
266	459
267	76
270	16
271	471
272	68
273	27
280	57
294	25
296	64
298	77
299	278
300	45
301	14
317	43
330	157
331	27
