Mass spectrum: 2-HEXYLCYCLOPENTANONE; EI-MS
Formula: C11H20O
Exact mass: 168.15142
Instrument type: EI-MS
m/z	relative intensity
27	101
29	105
39	94
41	261
42	65
43	99
53	35
54	42
55	171
56	67
57	17
67	36
68	13
69	58
70	34
79	10
82	11
83	134
84	999
85	53
97	143
98	14
168	43
