Mass spectrum: 2-ACETOXY-4-BENZOYL-2,6-DIPHENYL-2H-PYRAN; EI-MS
Formula: C26H20O4
Exact mass: 396.13616
Instrument type: EI-MS
m/z	relative intensity
43	156
44	35
45	36
51	84
69	31
76	30
77	780
78	78
83	30
105	999
106	85
171	44
233	76
249	934
250	179
251	37
291	58
337	225
338	97
354	119
355	32
396	88
397	25
