Mass spectrum: ORTHO-METHOXYACETOPHENONE; EI-MS
Name: ORTHO-ACETYLANISOLE
Formula: C9H10O2
Exact mass: 150.06808
Instrument type: EI-MS
m/z	relative intensity
27	16
29	25
31	15
37	11
38	35
39	51
42	17
43	183
50	69
51	99
52	28
53	25
58	10
61	12
62	31
63	109
64	82
65	54
74	26
75	21
76	39
77	371
78	95
79	44
89	14
91	34
92	207
93	25
104	11
105	35
107	20
120	49
121	55
133	15
135	999
136	89
150	175
151	12
