Mass spectrum: 2-(1-METHYLETHOXY)PHENOL METHYLCARBAMATE; EI-MS
Name: PROPOXUR
Formula: C11H15NO3
Exact mass: 209.10519
Instrument type: EI-MS
m/z	relative intensity
39	16
41	25
43	36
44	14
52	18
53	14
56	16
57	42
58	33
63	15
64	25
81	39
82	10
92	14
109	35
110	999
111	68
137	16
152	220
153	21
209	17
