Mass spectrum: 7-(BETA-HYDROXYPROPYL)THEOPHYLLINE; EI-MS
Name: PROXYPHYLLINE
Formula: C10H14N4O3
Exact mass: 238.10659
Instrument type: EI-MS
m/z	relative intensity
15	127
19	15
26	11
27	92
28	98
29	188
31	41
39	68
40	49
41	77
42	81
43	321
44	42
45	999
46	23
52	20
53	23
54	38
55	20
56	91
57	36
58	94
66	47
67	64
68	24
69	12
70	11
80	20
81	95
82	24
94	19
95	16
108	14
109	64
180	16
193	36
194	16
238	8
239	5
