Mass spectrum: 2-METHYL-1,4-BIS(TRIMETHYLSILYL)-2-BUTENE; EI-MS
Formula: C11H26Si2
Exact mass: 214.1573
Instrument type: EI-MS
m/z	relative intensity
43	39
44	22
45	131
58	15
59	48
72	17
73	999
74	110
75	49
83	12
85	11
109	11
111	277
112	37
113	14
125	18
126	180
127	25
141	16
214	101
215	23
216	10
