Mass spectrum: 4-ACETONYL-3-METHYL-1-PARA-TOLYL-3-PYRROLINE-2,5-DIONE; EI-MS
Formula: C15H15NO3
Exact mass: 257.10519
Instrument type: EI-MS
m/z	relative intensity
39	76
41	123
42	50
43	551
51	63
52	62
53	244
54	62
55	105
56	46
57	91
65	57
69	52
76	86
77	54
80	95
81	88
82	84
91	89
104	48
105	47
132	72
133	58
144	51
172	65
186	63
214	72
215	999
216	152
257	629
258	110
