Mass spectrum: N,N'-DIISOPROPYLTHIOUREA; EI-MS
Formula: C7H16N2S
Exact mass: 160.10342
Instrument type: EI-MS
m/z	relative intensity
14	14
17	23
26	52
27	42
29	17
32	13
39	36
40	11
41	145
42	90
43	267
44	126
57	15
58	999
59	46
60	129
61	10
62	14
64	33
69	16
70	39
75	22
85	62
90	14
102	11
103	11
117	39
128	11
159	29
160	492
161	53
162	24
