Mass spectrum: 1,3-DIPROPYNOXY-4-CHLORO-6-CYANOBENZENE; EI-MS
Name: 2,4-DIPROPYNOXY-5-CHLORO-BENZONITRIL
Formula: C13H8ClNO2
Exact mass: 245.02436
Instrument type: EI-MS
m/z	relative intensity
39	60
63	40
87	20
88	4
114	60
115	20
123	80
125	2
143	20
150	60
152	20
206	999
207	130
208	320
209	40
210	4
216	20
244	30
245	310
246	5
247	100
