Mass spectrum: PHOSPHORIC ACID 2,2-DICHLOROETHENYL DIMETHYL ESTER; EI-MS
Name: DICHLORVOS
Formula: C4H7Cl2O4P
Exact mass: 219.9459
Instrument type: EI-MS
m/z	relative intensity
38	22
47	33
48	11
55	14
68	12
76	24
79	142
80	11
83	13
93	19
109	999
110	45
111	18
113	33
128	13
145	104
147	45
174	15
185	394
186	42
187	99
194	12
220	122
222	52
224	10
