Mass spectrum: 3-CHLOROBENZYL 2-METHYLBENZOATE; EI-MS
Formula: C15H13ClO2
Exact mass: 260.06041
Instrument type: EI-MS
m/z	relative intensity
38	33
39	178
40	17
41	57
43	24
44	18
45	46
50	115
51	156
52	31
53	21
55	17
57	24
59	13
60	14
61	14
62	48
63	192
64	59
65	369
66	23
69	10
73	32
74	53
75	23
76	48
77	290
78	39
79	151
80	10
85	18
86	10
87	11
89	394
90	362
91	748
92	80
99	78
101	23
105	46
107	89
111	133
112	23
113	58
114	12
115	11
118	345
119	999
120	92
125	840
126	70
127	272
128	26
133	19
134	14
135	733
136	340
137	29
139	171
140	89
141	83
142	82
143	11
144	20
149	22
156	83
158	27
166	17
167	14
179	13
181	12
207	153
208	41
215	23
225	236
226	41
242	225
243	37
244	81
245	24
260	361
261	54
262	120
263	16
