Mass spectrum: 4-DIMETHYLAMINOBENZOIC ACID; EI-MS
Formula: C9H11NO2
Exact mass: 165.07898
Instrument type: EI-MS
m/z	relative intensity
15	31
27	11
28	13
38	11
39	34
42	80
43	11
44	20
45	45
50	48
51	53
52	16
53	11
62	11
63	45
64	16
65	63
66	13
69	24
74	33
75	30
76	35
77	95
78	42
79	30
90	20
91	31
92	19
93	12
103	14
104	58
105	45
118	45
119	29
120	33
121	22
132	39
148	152
149	65
150	16
162	11
164	999
165	906
166	103
