Mass spectrum: 3-BROMO-5-(3,4-DIHYDRO-2H-PYRROL-5-YL)PYRIDINE; EI-MS
Formula: C9H9BrN2
Exact mass: 223.99491
Instrument type: EI-MS
m/z	relative intensity
27	22
28	17
39	53
40	49
41	257
42	482
43	22
63	70
64	24
65	25
67	12
68	132
76	68
77	29
89	46
90	189
91	39
103	108
104	27
116	50
117	191
118	80
129	13
131	12
143	27
144	58
145	114
146	14
152	27
156	108
157	10
158	107
179	16
180	27
182	55
183	156
184	67
185	151
186	12
195	11
196	982
197	94
198	974
199	87
209	10
223	653
224	999
225	718
226	955
227	108
