Mass spectrum: 2-METHYLBENZOFURAN; EI-MS
Formula: C9H8O
Exact mass: 132.05751
Instrument type: EI-MS
m/z	relative intensity
15	19
26	23
27	48
37	18
38	46
39	114
43	52
49	11
50	94
51	195
52	48
53	16
61	19
62	48
63	100
64	18
65	25
66	51
74	39
75	35
76	38
77	184
78	107
87	13
89	26
102	50
103	138
104	55
105	12
130	12
131	999
132	887
133	86
