Mass spectrum: 4-BROMOBENZOIC ACID; EI-MS
Formula: C7H5BrO2
Exact mass: 199.94729
Instrument type: EI-MS
m/z	relative intensity
36	11
39	84
40	15
43	8
44	11
45	28
50	37
51	100
53	11
57	8
64	7
65	152
66	9
69	12
75	140
76	159
77	79
81	9
82	8
93	17
103	7
104	18
111	8
139	17
154	7
155	298
156	40
157	293
158	23
172	17
174	16
183	728
184	58
185	710
186	54
200	999
201	80
202	976
203	77
204	7
