Mass spectrum: ALDRITHIOL-2; EI-MS
Name: 2,2'-DIPYRIDYL DISULFIDE
Formula: C10H8N2S2
Exact mass: 220.01289
Instrument type: EI-MS
m/z	relative intensity
27	17
28	11
38	14
39	130
45	17
50	25
51	119
52	42
57	30
67	19
69	18
78	261
79	25
81	10
82	27
83	70
84	21
110	52
111	22
128	12
129	37
130	41
142	31
155	96
156	286
157	36
160	19
161	18
187	153
188	70
189	22
220	999
221	648
222	164
223	61
