Mass spectrum: DIMETHYL 1-(TRIPHENYLMETHYL)PYRROLIDINE-3,4-DICARBOXYLATE (3,4-CIS); EI-MS
Formula: C27H27NO4
Exact mass: 429.19401
Instrument type: EI-MS
m/z	relative intensity
59	19
77	11
91	37
154	19
165	229
166	33
167	16
186	12
215	11
228	28
241	24
242	20
243	999
244	234
245	16
352	59
353	18
429	13
