Mass spectrum: 2-DIETHYLAMINOETHANOL; EI-MS
Formula: C6H15NO
Exact mass: 117.11536
Instrument type: EI-MS
m/z	relative intensity
27	68
29	76
30	129
42	12
44	51
56	97
58	318
86	999
87	70
102	94
117	47
