Mass spectrum: DIMETHYL TRANS-2,3,4,5,6,7-HEXAHYDROINDEN-1(H)-ONE-5,6-DICARBOXYLATE; EI-MS
Name: DIMETHYL (5R,6R)-2,3,4,5,6,7-HEXAHYDROINDEN-1(H)-ONE-5,6-DICARBOXYLATE
Formula: C13H16O5
Exact mass: 252.09977
Instrument type: EI-MS
m/z	relative intensity
39	70
51	59
52	50
55	47
59	196
65	75
77	148
78	119
79	104
91	431
92	60
103	81
104	68
105	447
106	52
132	71
133	999
134	138
135	38
136	12
148	22
150	35
151	13
159	12
160	11
161	53
163	11
177	29
191	25
192	415
193	263
194	39
220	279
221	172
222	22
252	50
253	12
