Mass spectrum: FLEXIBILENE; EI-MS
Formula: C20H32
Exact mass: 272.2504
Instrument type: EI-MS
m/z	relative intensity
65	45
66	265
68	200
69	13
70	10
77	180
78	35
79	24
80	260
81	210
82	55
83	2
91	225
92	150
93	999
94	15
95	140
96	25
97	10
103	2
105	185
106	50
107	305
108	7
109	235
110	20
115	15
117	2
119	135
120	45
121	350
122	11
123	60
124	10
131	20
132	1
133	90
134	95
135	880
136	17
137	25
145	25
146	15
147	11
148	50
149	30
159	40
160	1
161	100
162	30
163	40
164	1
173	10
175	30
176	20
177	1
187	35
188	15
189	60
190	2
191	10
201	10
202	40
203	3
204	10
215	15
216	15
229	3
230	10
257	20
258	10
272	25
273	45
274	10
