Mass spectrum: PENTAERYTHRITOL TETRAACRYLIC ACID ESTER; EI-MS
Name: PENTAERYTHRITOL TETRAACRYLATE
Formula: C17H20O8
Exact mass: 352.11582
Instrument type: EI-MS
m/z	relative intensity
26	58
27	919
28	199
29	31
31	32
39	45
40	24
41	46
42	15
43	19
44	57
53	40
54	130
55	978
56	570
57	78
66	14
67	32
68	54
69	65
70	33
71	29
72	31
73	46
79	22
80	352
81	913
82	999
83	192
84	26
85	50
95	359
96	403
97	42
98	19
99	85
105	13
106	49
107	32
108	425
109	64
110	32
111	74
123	50
124	214
125	307
126	780
127	848
128	58
134	21
135	15
136	131
137	15
141	150
142	14
152	14
153	112
154	185
155	20
178	15
181	25
195	21
196	488
197	53
208	28
225	361
226	39
281	179
295	4
296	5
297	8
298	2
308	6
324	26
325	5
352	10
353	4
