Mass spectrum: PHOSPHOROTHIOIC ACID O,O-DIETHYL O-(5-PHENYL-3-ISOXAZOLYL) ESTER; EI-MS
Formula: C13H16NO4PS
Exact mass: 313.05377
Instrument type: EI-MS
m/z	relative intensity
36	14
39	17
45	40
47	11
50	30
51	97
61	17
63	20
65	51
69	11
74	16
75	19
76	34
77	340
78	49
81	42
89	35
90	14
91	32
93	37
97	133
99	30
102	60
103	23
104	16
105	999
106	79
109	95
111	12
113	68
114	17
115	19
116	64
117	14
121	28
125	50
127	34
128	18
129	41
130	175
131	33
132	17
136	40
137	18
141	79
142	13
143	12
144	10
145	56
146	24
147	22
148	16
149	39
150	13
153	24
158	11
159	181
160	30
161	96
162	72
163	10
164	31
169	41
170	18
171	13
172	37
174	31
177	769
178	101
179	47
180	12
186	12
188	25
192	19
205	11
208	104
209	14
224	10
236	14
240	27
257	16
284	11
285	69
286	12
312	16
313	551
314	90
315	35
