Mass spectrum: 1-METHYLSILACYCLOHEXANE (D3-METHYL); EI-MS
Formula: C6H14Si
Exact mass: 114.08648
Instrument type: EI-MS
m/z	relative intensity
43	29
46	39
47	22
48	68
59	34
60	14
61	464
62	115
63	24
65	34
67	13
68	25
69	14
70	23
71	201
72	22
73	21
74	68
75	212
76	64
77	14
87	37
88	218
89	999
90	109
91	41
93	23
97	57
98	31
99	194
100	31
101	11
102	23
115	59
116	253
117	653
118	90
119	25
