Mass spectrum: 1-BUTEN-3-OL; EI-MS
Formula: C4H8O
Exact mass: 72.05751
Instrument type: EI-MS
m/z	relative intensity
14	27
15	114
17	13
18	47
19	36
25	13
26	116
27	412
29	363
31	135
37	24
38	39
39	163
40	14
41	72
42	46
43	999
44	69
45	349
49	13
50	46
51	39
52	13
53	63
54	43
55	97
56	13
57	996
58	49
59	13
71	129
72	18
