Mass spectrum: 5-BROMO-3-PYRIDINECARBOXYLIC ACID ETHYL ESTER; EI-MS
Formula: C8H8BrNO2
Exact mass: 228.97384
Instrument type: EI-MS
m/z	relative intensity
27	63
28	26
29	403
30	10
39	22
45	333
50	128
51	65
52	13
53	10
66	20
76	212
77	163
78	97
79	16
94	38
104	59
105	68
106	21
122	27
129	80
131	80
150	123
151	12
155	23
156	504
157	150
158	490
159	124
183	170
184	999
185	282
186	977
187	112
188	13
201	933
202	78
203	924
204	71
228	92
229	505
230	147
231	507
232	57
