Mass spectrum: 4-TERT-BUTYLSTYLENE; EI-MS
Formula: C12H16
Exact mass: 160.1252
Instrument type: EI-MS
m/z	relative intensity
41	84
77	59
91	111
105	124
115	65
117	229
128	72
129	39
130	41
145	999
146	127
160	325
161	55
