Mass spectrum: DIMETHYL TRANS-4-ACRYLOYL-4-CYCLOHEXENE-1,2-DICARBOXYLATE; EI-MS
Name: DIMETHYL (1S,2S)-4-ACRYLOYL-4-CYCLOHEXENE-1,2-DICARBOXYLATE
Formula: C13H16O5
Exact mass: 252.09977
Instrument type: EI-MS
m/z	relative intensity
55	73
59	18
77	37
79	14
91	16
93	13
103	13
105	40
115	17
131	12
132	33
133	999
134	107
135	15
137	51
138	12
160	43
161	75
165	21
177	53
192	832
193	157
194	20
220	535
221	231
222	37
253	24
