Mass spectrum: 4-ETHOXYCARBONYL-6-ETHYL-5-METHYL-2-(PARA-TOLYL)PERHYDROPYRROLO(3,4-C)PYRROLE-1,3-DIONE (3A,4-TRANS-6,6A-CIS); EI-MS
Name: (4R,6S)-4-ETHOXYCARBONYL-6-ETHYL-5-METHYL-2-(PARA-TOLYL)PERHYDROPYRROLO(3,4-C)PYRROLE-1,3-DIONE
Formula: C19H24N2O4
Exact mass: 344.17361
Instrument type: EI-MS
m/z	relative intensity
39	20
41	37
42	38
43	122
44	35
51	22
55	31
57	43
58	55
67	22
69	23
70	23
71	24
76	32
80	42
81	52
82	24
84	18
91	22
94	23
105	19
107	21
110	116
133	17
136	42
141	20
186	29
243	20
262	45
270	11
271	999
272	201
273	21
315	88
316	15
344	51
278	22
