Mass spectrum: BUTYL LAURATE; EI-MS
Formula: C16H32O2
Exact mass: 256.24023
Instrument type: EI-MS
m/z	relative intensity
27	76
28	22
29	249
39	4
40	13
41	333
42	62
43	30
44	13
53	13
54	22
55	19
56	999
57	418
58	18
60	21
61	129
67	27
68	18
69	8
70	44
71	102
73	191
74	2
81	22
83	62
84	36
85	6
87	40
89	13
95	31
96	1
97	44
98	40
99	13
101	6
103	13
109	18
111	18
112	1
115	31
116	120
117	40
129	9
130	13
139	13
143	18
157	4
171	22
183	182
184	27
185	2
200	58
201	316
202	40
213	1
256	58
