Mass spectrum: N,N-DIMETHYLETHYLAMINE; EI-MS
Formula: C4H11N
Exact mass: 73.08915
Instrument type: EI-MS
m/z	relative intensity
14	30
15	141
18	18
26	40
27	124
28	104
29	87
30	123
39	16
40	31
41	62
42	368
43	118
44	198
54	20
55	13
56	89
57	53
58	999
59	38
70	12
72	140
73	183
74	13
