Mass spectrum: 2-BROMOBENZYL BENZOATE; EI-MS
Formula: C14H11BrO2
Exact mass: 289.99424
Instrument type: EI-MS
m/z	relative intensity
27	15
29	18
38	14
39	53
40	27
44	17
50	94
51	239
52	21
62	22
63	72
64	22
74	24
75	37
76	53
77	448
78	76
89	174
90	156
91	22
105	999
106	86
122	10
155	13
157	22
165	14
166	12
167	15
169	134
170	10
171	131
172	10
185	22
187	10
211	637
212	104
