Mass spectrum: 3,5-DIMETHYL-4-NITROBENZYL BENZOATE; EI-MS
Formula: C16H15NO4
Exact mass: 285.10011
Instrument type: EI-MS
m/z	relative intensity
27	18
30	19
32	18
39	47
41	12
50	27
51	111
52	19
53	18
63	18
65	37
76	17
77	362
78	58
79	28
89	12
91	119
92	13
102	10
103	28
104	19
105	999
106	124
107	12
115	47
116	15
117	77
118	21
119	10
133	13
134	62
135	17
146	28
148	10
163	22
164	18
285	116
286	20
