Mass spectrum: 2-(HYDROXY(4-CYANOPHENYL)METHYL)TROPONE; EI-MS
Formula: C15H11NO2
Exact mass: 237.07898
Instrument type: EI-MS
m/z	relative intensity
38	126
40	57
50	97
51	263
52	84
63	78
75	82
76	75
77	398
78	104
79	96
89	69
102	219
104	78
105	193
106	86
107	454
130	479
131	70
135	110
164	63
190	590
191	238
208	79
218	116
219	103
236	102
237	999
238	179
