Mass spectrum: CATECHOL; EI-MS
Name: ORTHO-DIHYDROXYBENZENE
Formula: C6H6O2
Exact mass: 110.03678
Instrument type: EI-MS
m/z	relative intensity
26	43
27	104
29	67
37	36
38	74
39	110
40	11
42	20
43	15
46	13
49	27
50	93
51	107
52	78
53	196
54	62
55	101
61	26
62	53
63	283
64	501
65	48
66	17
77	13
79	16
80	10
81	232
82	66
92	167
93	19
109	57
110	999
111	154
