Mass spectrum: 2-CARBOXYMETHYL-6-CHLORO-2-METHYL-3,4-DIHYDRO-2H-1-BENZOPYRAN; EI-MS
Formula: C12H13ClO3
Exact mass: 240.05532
Instrument type: EI-MS
m/z	relative intensity
27	50
28	20
29	40
39	9
41	80
43	110
45	40
50	3
51	110
52	20
53	40
55	6
63	60
65	40
71	20
72	2
73	30
75	60
76	20
77	28
78	50
79	20
82	110
89	5
91	60
99	60
100	20
101	3
102	30
103	20
105	20
111	2
112	110
113	40
114	40
115	8
116	20
117	20
125	80
127	5
128	60
129	20
130	20
131	5
140	80
141	999
142	110
143	32
144	80
145	110
146	9
152	40
153	60
154	40
155	3
158	20
159	320
160	50
165	23
166	30
167	80
168	20
177	6
178	20
179	190
180	130
181	28
182	60
183	80
187	90
193	6
194	120
195	40
196	40
204	3
205	20
207	170
208	20
209	7
222	430
223	60
224	150
225	2
240	650
241	90
242	220
243	20
