Mass spectrum: 2-(4-(2-CARBOXYLPROPYL)PHENYL)OROPIONIC ACID; EI-MS
Formula: C13H16O4
Exact mass: 236.10486
Instrument type: EI-MS
m/z	relative intensity
15	76
16	32
18	787
29	54
30	19
31	575
32	473
42	43
43	999
44	27
45	682
60	931
61	28
118	41
119	18
163	140
164	17
191	116
192	16
205	12
236	73
237	11
