Mass spectrum: 5-ETHOXY-3-METHYL-1,3-PENTADIENE; EI-MS
Name: 2,4-PENTADIENE-3-METHYL-1-ETHOXY
Formula: C8H14O
Exact mass: 126.10447
Instrument type: EI-MS
m/z	relative intensity
27	89
28	13
29	34
39	10
40	21
41	139
42	31
43	15
44	11
45	540
46	11
50	1
51	26
53	96
54	78
55	9
56	10
57	12
65	35
66	3
67	999
68	59
72	10
77	3
79	83
80	19
81	184
82	73
83	55
