Mass spectrum: 3-BROMOBENZYL BENZOATE; EI-MS
Formula: C14H11BrO2
Exact mass: 289.99424
Instrument type: EI-MS
m/z	relative intensity
26	18
27	46
29	27
37	22
38	53
39	108
40	14
43	11
44	23
45	108
49	25
50	302
51	533
52	79
53	24
55	12
61	14
62	18
63	38
64	10
65	50
66	32
73	23
74	109
75	80
76	110
77	833
78	119
79	42
89	37
90	29
91	13
94	37
104	14
105	999
106	80
107	33
122	679
123	56
155	13
157	15
169	13
171	12
183	17
184	10
185	19
186	18
200	16
202	16
290	17
292	16
