Mass spectrum: 4-NITROPHENYLHYDRAZINE; EI-MS
Formula: C6H7N3O2
Exact mass: 153.05383
Instrument type: EI-MS
m/z	relative intensity
17	20
18	79
26	11
27	22
28	51
29	31
30	76
31	19
37	27
38	59
39	113
40	17
41	40
42	11
43	12
46	15
50	146
51	127
52	103
53	99
54	26
56	11
61	27
62	61
63	269
64	160
65	131
66	23
67	18
73	13
74	70
75	74
76	96
77	96
78	59
79	41
80	228
81	36
90	322
91	134
92	50
93	29
105	29
106	54
107	143
108	39
109	45
122	51
123	319
124	24
137	20
138	37
139	58
150	43
151	70
152	12
153	999
154	80
