Mass spectrum: 4,5-EPOXYGERMACRONE; EI-MS
Formula: C15H22O2
Exact mass: 234.16198
Instrument type: EI-MS
m/z	relative intensity
41	675
42	90
43	480
44	6
45	35
50	35
51	80
52	5
53	280
54	50
55	160
56	4
57	40
58	20
59	30
63	4
65	80
66	65
67	440
68	999
69	225
70	45
71	50
77	10
78	35
79	30
80	55
81	14
82	70
83	45
84	35
85	3
91	100
92	40
93	95
94	3
95	85
96	125
97	100
98	3
103	30
105	85
106	35
107	14
108	50
109	95
110	30
111	4
115	30
117	30
119	50
120	3
121	250
122	60
123	90
124	5
125	80
131	30
133	55
134	4
135	40
136	35
137	45
138	3
139	80
145	30
147	35
148	3
149	65
150	30
151	80
152	5
153	80
161	40
163	40
164	6
165	65
166	35
167	385
168	6
176	40
178	50
191	30
216	3
219	30
234	35
