Mass spectrum: 4-METHYLPHENYL HEXANOATE; EI-MS
Formula: C13H18O2
Exact mass: 206.13068
Instrument type: EI-MS
m/z	relative intensity
27	69
29	68
39	51
41	87
42	22
43	277
51	21
52	16
53	19
55	51
65	21
71	98
77	86
78	28
79	42
80	14
90	10
91	36
99	62
107	116
108	999
109	93
206	47
