Mass spectrum: (1'S)-N-(1'-PHENYLETHYL)-3-ACETOXY-2,2-DIMETHYLPROPANAMIDE; EI-MS
Formula: C15H21NO3
Exact mass: 263.15214
Instrument type: EI-MS
m/z	relative intensity
43	385
55	70
56	231
77	150
78	53
79	106
103	83
104	210
105	999
106	167
115	161
119	60
120	629
121	69
132	127
143	118
147	92
264	181
265	42
