Mass spectrum: 4-(4-CHLOROPHENYL)-1,2,3,6-TETRAHYDRO PYRIDINE; EI-MS
Formula: C11H12ClN
Exact mass: 193.06583
Instrument type: EI-MS
m/z	relative intensity
17	17
18	113
26	15
27	50
28	119
29	22
30	45
36	48
38	15
39	33
41	41
42	36
43	17
44	68
45	17
50	38
51	80
52	21
53	47
54	32
55	30
56	70
57	11
62	16
63	47
64	21
65	19
67	14
68	86
72	26
73	13
74	32
75	75
76	24
77	88
78	73
79	30
80	137
81	54
82	347
83	25
87	14
89	29
91	18
98	15
99	22
100	11
101	80
102	65
103	29
111	10
112	11
113	15
114	24
115	97
116	27
117	12
125	153
126	36
127	178
128	267
129	670
130	160
131	19
136	41
137	19
138	40
139	14
140	14
141	24
143	24
149	92
150	19
151	43
152	13
153	11
154	25
155	15
156	62
157	65
158	346
159	45
162	14
163	19
164	256
165	54
166	91
167	16
175	16
177	25
178	39
179	11
180	13
189	14
190	64
191	27
192	622
193	999
194	302
195	319
196	38
