Mass spectrum: 8,13-DIOXO-5,6,7,8,13,14,15,16-OCTAHYDRO-6,15-METHANOBENZO(A)NAPHTHO(2,3-F)CYCLODECENE; EI-MS
Formula: C23H20O2
Exact mass: 328.14633
Instrument type: EI-MS
m/z	relative intensity
77	70
91	65
104	53
105	64
115	95
128	111
129	70
141	66
143	125
165	60
186	263
187	62
198	59
223	152
224	72
311	17
313	75
314	17
328	999
329	257
330	35
