Mass spectrum: DIETHYLDIIODOSILANE; EI-MS
Formula: C4H10I2Si
Exact mass: 339.86411
Instrument type: EI-MS
m/z	relative intensity
54	253
55	63
56	295
57	95
58	400
59	221
60	32
81	11
127	58
128	53
155	179
156	32
157	142
185	379
186	21
213	999
214	95
215	32
282	63
283	379
311	168
340	758
341	74
342	21
