Mass spectrum: SILACYCLOHEXANE (1,1-D2); EI-MS
Formula: C5H12Si
Exact mass: 100.07083
Instrument type: EI-MS
m/z	relative intensity
28	14
32	13
41	23
43	35
44	88
45	151
46	96
47	19
57	19
58	41
59	81
60	50
61	72
70	36
71	66
72	178
73	392
74	999
75	99
76	43
83	17
84	14
86	24
87	22
97	33
98	76
99	39
100	85
101	24
102	611
103	69
104	27
