Mass spectrum: 5,5'-DIETHYL-BARBITURIC ACID; EI-MS
Name: BARBITAL
Formula: C8H12N2O3
Exact mass: 184.08479
Instrument type: EI-MS
m/z	relative intensity
27	38
28	13
29	47
39	46
41	71
42	13
44	25
53	17
54	14
55	74
56	11
69	37
70	24
83	67
85	26
94	17
98	96
112	118
113	15
126	10
141	631
142	41
155	171
156	999
157	76
185	34
