Mass spectrum: 1,6-HEXANEDIOL; EI-MS
Formula: C6H14O2
Exact mass: 118.09938
Instrument type: EI-MS
m/z	relative intensity
15	41
19	32
26	27
27	299
28	39
29	390
30	27
31	999
38	14
39	221
40	46
41	784
42	720
43	318
44	189
45	110
49	59
51	13
53	60
54	311
55	457
56	135
57	392
58	42
59	15
62	10
67	531
68	83
69	177
70	263
71	108
72	70
81	78
82	193
83	158
84	12
88	22
101	18
119	13
