Mass spectrum: 3-ETHOXY-2-ISOPROPENYLBUTYLTRIMETHYLSILANE; EI-MS
Formula: C12H26OSi
Exact mass: 214.17529
Instrument type: EI-MS
m/z	relative intensity
43	16
45	33
58	11
59	21
73	999
74	90
111	462
112	81
126	330
127	64
214	236
215	67
