Mass spectrum: 4-(TRIFLUOROMETHYL)BENZYL ALCOHOL; EI-MS
Formula: C8H7F3O
Exact mass: 176.0449
Instrument type: EI-MS
m/z	relative intensity
27	28
29	114
30	14
31	95
38	37
39	67
40	17
49	10
50	139
51	163
52	32
53	27
57	39
61	19
62	50
63	90
64	19
69	155
70	12
73	11
74	63
75	151
76	44
77	280
78	98
79	575
80	44
81	30
83	27
87	25
88	22
89	47
90	17
94	12
95	63
96	49
97	12
99	36
100	15
101	27
105	24
106	13
107	959
108	78
109	96
110	29
114	16
119	36
125	62
126	46
127	999
128	78
129	13
132	11
138	19
139	11
145	199
146	31
147	98
155	30
156	19
157	250
158	52
159	93
173	55
174	11
175	147
176	819
177	58
