Mass spectrum: META-METHOXYPHENOL; EI-MS
Name: 3-METHOXYPHENOL
Formula: C7H8O2
Exact mass: 124.05243
Instrument type: EI-MS
m/z	relative intensity
15	10
27	17
29	15
38	18
39	43
41	15
42	18
43	176
50	22
51	29
52	33
53	72
55	25
58	103
62	24
63	35
64	18
65	51
66	56
67	11
68	12
69	29
77	21
78	11
79	12
80	15
81	228
82	15
93	27
94	293
95	167
96	13
108	10
109	212
110	16
123	26
124	999
125	81
138	12
