Mass spectrum: LACTIC ACID; EI-MS
Formula: C3H6O3
Exact mass: 90.03169
Instrument type: EI-MS
m/z	relative intensity
14	29
15	91
17	104
18	451
19	160
26	42
27	169
28	58
29	206
30	16
42	25
43	130
44	32
45	999
46	28
55	18
56	23
74	42
89	11
