Mass spectrum: 4,7-DI(PARA-ETHOXYPHENYL)-6-(3,4-DIMETHOXYPHENYL)-1,2,5-THIADIAZOLO(3,4-C)PYRIDINE; EI-MS
Formula: C29H27N3O4S
Exact mass: 513.17223
Instrument type: EI-MS
m/z	relative intensity
32	98
44	158
213	49
410	48
438	77
440	47
456	44
466	67
467	402
468	236
469	94
484	201
485	76
512	198
513	999
514	327
515	102
