Mass spectrum: 1,1,3,3,5,5-HEXAMETHYLTRISILOXANE; EI-MS
Formula: C6H20O2Si3
Exact mass: 208.07711
Instrument type: EI-MS
m/z	relative intensity
51	11
52	16
55	42
56	11
57	37
58	274
59	999
60	42
61	163
71	11
72	11
73	295
74	332
75	211
77	11
81	63
82	58
87	84
88	37
89	95
96	711
97	89
103	95
104	21
105	32
115	58
117	21
119	68
134	116
192	10
208	52
209	10
