Mass spectrum: 2,4,7-TRIACETOXY-5-ISOPROPYLTROPONE; EI-MS
Formula: C16H18O7
Exact mass: 322.10525
Instrument type: EI-MS
m/z	relative intensity
39	26
41	36
42	28
43	999
44	23
51	16
53	23
67	20
69	77
77	20
79	16
84	26
121	17
139	22
153	146
154	22
167	29
168	47
181	59
195	21
196	939
197	115
238	281
239	35
280	72
281	16
322	26
323	18
