Mass spectrum: TRANS-4-(TRIFLUOROMETHYL)CINNAMIC ACID; EI-MS
Formula: C10H7F3O2
Exact mass: 216.03981
Instrument type: EI-MS
m/z	relative intensity
42	25
43	13
44	8
45	18
54	18
55	12
69	23
70	10
71	26
77	17
91	101
92	8
95	12
96	9
101	15
102	75
103	47
109	16
119	81
120	26
121	8
127	25
140	7
145	52
146	15
147	275
148	27
151	308
152	33
159	74
160	9
169	31
170	123
171	224
172	25
173	20
175	19
187	14
188	29
197	63
198	72
199	220
200	24
215	896
216	999
217	107
218	9
