Mass spectrum: N-(1-NAPHTHYLMETHYLIDENE)METHYLAMINE; EI-MS
Formula: C12H11N
Exact mass: 169.08915
Instrument type: EI-MS
m/z	relative intensity
37	84
38	304
39	545
40	184
41	537
42	854
43	87
44	10
49	32
50	620
51	635
52	240
53	46
61	146
62	488
63	708
64	149
65	114
66	20
73	44
74	616
75	620
76	391
77	540
78	109
83	22
85	53
86	224
87	398
88	113
89	186
90	27
91	22
97	16
98	169
99	151
100	143
101	324
102	279
103	33
110	28
111	56
112	18
113	118
114	48
115	37
116	44
122	18
125	70
126	796
127	999
128	397
129	37
137	19
138	23
139	255
140	64
141	80
142	16
151	13
152	42
153	193
154	194
155	32
156	23
166	54
167	110
168	466
169	505
170	112
171	10
