Mass spectrum: CYCLOOCTANONE; EI-MS
Formula: C8H14O
Exact mass: 126.10447
Instrument type: EI-MS
m/z	relative intensity
14	19
15	28
26	41
27	357
29	173
30	11
37	11
38	24
39	442
40	15
41	846
42	726
43	141
50	15
51	36
52	19
53	74
54	81
550	999
56	318
57	68
58	45
590	12
63	12
65	18
66	14
67	159
68	110
69	263
70	237
71	51
72	15
77	10
79	36
80	29
81	22
82	341
83	377
84	405
85	30
93	50
97	162
98	910
99	55
108	13
111	64
126	131
127	17
