Mass spectrum: HEXAFLUOROISOPROPANOL; EI-MS
Name: 1,1,1,3,3,3-HEXAFLUORO-2-PROPANOL
Formula: C3H2F6O
Exact mass: 168.00098
Instrument type: EI-MS
m/z	relative intensity
17	14
18	61
28	17
29	564
30	25
31	100
32	49
44	13
47	12
49	542
50	97
51	923
52	13
60	34
63	19
67	29
69	519
78	37
79	520
80	92
82	14
93	11
97	20
99	999
100	33
101	262
113	14
129	439
130	14
149	110
