Mass spectrum: 2',4'-DIMETHOXYACETOPHENONE; EI-MS
Formula: C10H12O3
Exact mass: 180.07864
Instrument type: EI-MS
m/z	relative intensity
43	14
77	39
79	11
92	18
107	40
109	12
122	71
135	34
150	31
163	33
165	999
166	98
167	11
179	11
180	276
181	30
182	4
