Mass spectrum: CIS-5-(6-CARBOXYHEXYL)-TRANS-4-(TRANS-3-HYDROXY-1-OCTENYL)-2,REF.-3-DIPHENYLISOXAZOLIDINE; EI-MS
Name: (3S,4S,5R)-5-(6-CARBOXYHEXYL)-4-(3-HYDROXY-1-OCTENYL)-2,3-DIPHENYLISOXAZOL
Formula: C30H41NO4
Exact mass: 479.30356
Instrument type: EI-MS
m/z	relative intensity
42	134
44	146
55	140
77	364
91	609
104	136
105	186
180	490
181	687
182	666
196	233
197	343
198	999
199	145
232	271
479	356
480	121
481	110
