Mass spectrum: 3,4-(METHYLENEDIOXY)BENZYL 3,4-(METHYLENEDIOXY)-ALPHA-METHYLCINNAMATE; EI-MS
Name: 1,3-BENZODIOXOL-5-(2-METHYL-1-PROPENIC ACID)-1,3-BENZODIOXOL-5-METHYL ESTER
Formula: C19H16O6
Exact mass: 340.09469
Instrument type: EI-MS
m/z	relative intensity
51	41
77	115
79	12
103	59
105	42
131	19
135	999
137	148
149	27
159	19
160	16
161	19
162	18
175	42
189	44
190	19
204	25
205	32
295	40
296	16
322	12
340	268
341	56
