Mass spectrum: BIS(3-METHYL-2-BUTENYL) ETHER; EI-MS
Formula: C10H18O
Exact mass: 154.13577
Instrument type: EI-MS
m/z	relative intensity
27	91
29	163
39	112
40	15
41	881
42	108
43	63
53	83
55	231
56	20
57	170
67	116
68	92
69	999
70	328
71	127
83	45
85	386
86	31
110	33
139	305
140	25
