Mass spectrum: 2,2-DIMETHOXYPROPANE; EI-MS
Formula: C5H12O2
Exact mass: 104.08373
Instrument type: EI-MS
m/z	relative intensity
14	44
15	158
16	11
26	30
27	144
29	236
30	28
31	83
33	15
37	15
38	32
39	171
40	43
41	209
42	238
43	761
44	20
45	111
47	40
55	34
57	34
58	16
72	80
73	999
74	46
89	281
90	13
