Mass spectrum: CIS-1,2-CYCLOHEXANEDICARBOXYLIC ACID DIETHYL ESTER; EI-MS
Name: DIETHYL CIS-1,2-CYCLOHEXANEDICARBOXYLATE
Formula: C12H20O4
Exact mass: 228.13616
Instrument type: EI-MS
m/z	relative intensity
30	25
31	79
38	14
39	197
40	71
41	316
42	30
43	219
45	59
51	32
52	35
53	197
54	225
55	134
56	13
57	31
58	18
65	30
66	52
67	325
68	47
69	29
70	13
71	11
73	35
77	60
78	13
79	164
80	297
81	999
82	184
83	42
85	15
86	35
88	34
95	11
97	31
99	37
100	15
101	20
108	224
109	174
110	30
113	11
114	15
115	17
125	71
126	39
127	43
128	26
136	25
140	24
154	407
155	97
156	31
182	145
183	317
184	35
228	29
