Mass spectrum: CIS-N-METHYL-4-ACRYLOYL-4-CYCLOHEXENE-1,2-DICARBOXIMIDE; EI-MS
Formula: C12H13NO3
Exact mass: 219.08954
Instrument type: EI-MS
m/z	relative intensity
39	263
41	313
42	110
43	999
44	192
45	165
51	223
53	159
55	785
56	169
57	227
58	241
69	178
77	679
78	295
79	807
80	204
91	169
92	159
105	296
106	113
107	163
108	236
109	32
110	32
111	27
112	120
113	149
114	26
115	62
116	91
117	38
119	34
120	28
121	49
129	28
133	208
134	164
135	47
149	39
192	57
218	33
219	366
220	42
