Mass spectrum: N-PHENYLMORPHOLINE; EI-MS
Formula: C10H13NO
Exact mass: 163.09971
Instrument type: EI-MS
m/z	relative intensity
420	12
430	25
500	33
510	136
520	26
570	17
630	17
640	10
650	26
760	14
770	285
780	44
790	12
910	48
1040	306
1050	999
1060	99
1170	12
1180	11
1320	48
1330	11
1620	48
1630	600
1640	70
