Mass spectrum: 7-(2,3-DIHYDROXYPROPYL)THEOPHYLLINE; EI-MS
Name: DYPHYLLINE
Formula: C10H14N4O4
Exact mass: 254.1015
Instrument type: EI-MS
m/z	relative intensity
15	78
27	32
28	83
29	233
30	33
31	999
32	29
39	16
40	33
41	33
42	73
43	234
44	75
45	10
52	20
53	30
54	28
55	24
56	70
57	28
58	53
60	14
61	129
66	41
67	59
68	37
69	11
70	13
80	18
81	68
82	24
94	27
95	24
109	38
180	28
193	30
194	16
223	13
254	14
255	13
