Mass spectrum: N-((E)-(3S)-3-BENZYLAMINO-5-PHENYL-4-PENENOYL)BORNANE-10,2-SALTAM; EI-MS
Formula: C28H34N2O3S
Exact mass: 478.22901
Instrument type: EI-MS
m/z	relative intensity
291	53
294	19
307	17
323	36
325	12
371	378
372	95
373	52
387	999
388	260
389	86
390	12
429	21
476	39
477	16
478	53
479	13
