Mass spectrum: (2E)-2-(2,4-HEXADIYNYLIDENE)-1,6-DIOXASPIRO(4,4)NON-3-ENE; EI-MS
Formula: C13H12O2
Exact mass: 200.08373
Instrument type: EI-MS
m/z	relative intensity
41	160
42	130
43	60
47	8
50	250
51	160
52	70
53	9
54	130
55	140
62	60
63	11
64	40
65	80
66	60
67	12
68	55
69	65
74	120
75	14
76	250
77	160
78	105
79	15
82	90
83	230
85	320
86	4
87	70
88	60
89	60
91	11
92	30
93	30
94	30
95	6
96	55
100	30
101	30
102	19
103	70
104	55
105	60
106	6
107	115
108	70
109	30
113	3
114	40
115	320
116	140
117	6
118	30
119	20
127	120
128	20
129	220
130	155
131	70
132	4
133	30
139	40
141	130
142	4
143	100
144	130
145	45
152	5
153	55
155	60
156	60
157	20
158	170
159	80
169	165
170	26
171	180
172	140
173	30
183	3
184	45
185	165
186	30
199	19
200	999
201	150
202	30
