Mass spectrum: 2-HYDROXYPROPYL PHENYLACETATE; EI-MS
Formula: C11H14O3
Exact mass: 194.09429
Instrument type: EI-MS
m/z	relative intensity
15	12
27	24
29	34
31	207
39	76
41	90
43	45
50	11
51	26
58	134
59	112
62	10
63	37
64	11
65	142
89	46
90	30
91	999
92	213
104	44
105	41
118	63
119	76
136	14
137	67
150	29
