Mass spectrum: 2-ISOPROPYL-1,3-PROPANEDIOL; EI-MS
Formula: C6H14O2
Exact mass: 118.09938
Instrument type: EI-MS
m/z	relative intensity
27	110
28	896
29	172
30	3
31	21
32	273
40	34
41	46
42	256
43	502
44	90
45	20
54	34
55	661
56	156
57	50
58	168
59	62
61	35
67	10
68	29
69	383
70	999
71	16
72	31
73	29
81	27
82	9
83	63
85	105
87	25
98	3
99	120
100	18
