Mass spectrum: METHYL 2,4-DIHYDROXY-3,5,6-TRIMETHYLBENZOATE; EI-MS
Formula: C11H14O4
Exact mass: 210.08921
Instrument type: EI-MS
m/z	relative intensity
15	81
18	34
27	65
28	20
29	31
31	34
33	32
39	103
40	19
41	61
43	69
50	12
51	52
52	25
53	80
54	13
55	72
59	11
63	35
64	14
65	80
66	40
67	102
69	17
77	176
78	50
79	110
80	15
81	16
83	85
89	16
91	119
92	25
93	75
94	36
95	21
103	21
104	17
105	37
107	155
108	24
120	11
121	97
122	63
123	29
135	26
149	177
150	999
151	109
152	11
176	11
177	69
178	791
179	236
180	27
210	361
211	45
