Mass spectrum: 4-AMINOPYRIDINE; EI-MS
Formula: C5H6N2
Exact mass: 94.0531
Instrument type: EI-MS
m/z	relative intensity
26	24
27	11
28	60
37	19
38	41
39	104
40	84
41	188
42	38
43	14
50	28
51	38
52	61
53	15
54	46
64	10
65	24
66	86
67	351
68	47
93	92
94	999
95	75
