Mass spectrum: SEBACOYL DIMETHYL ESTER; EI-MS
Name: DECANE-1,10-DICARBOXYLIC ACID DIMETHYL ESTER
Formula: C12H22O4
Exact mass: 230.15181
Instrument type: EI-MS
m/z	relative intensity
41	415
42	113
43	481
44	3
45	57
53	42
54	42
55	94
56	104
57	85
59	415
67	10
68	66
69	377
70	76
71	5
73	94
74	999
75	57
79	6
80	57
81	123
82	57
83	42
84	557
85	47
87	359
88	4
93	38
94	47
95	94
96	12
97	519
98	613
99	59
100	1
101	104
102	9
106	9
107	6
109	28
110	77
111	113
112	8
113	28
114	28
115	108
116	1
120	28
121	113
122	19
123	5
124	91
125	764
126	47
128	1
129	9
137	28
138	406
139	21
140	19
141	9
142	9
143	2
144	47
148	57
149	28
154	1
155	9
156	9
157	462
158	4
166	330
167	59
170	47
198	4
199	547
200	66
