Mass spectrum: 3-HYDROXY-2-ISOPROPENYLDECYLTRIMETHYLSILANE; EI-MS
Formula: C16H34OSi
Exact mass: 270.23789
Instrument type: EI-MS
m/z	relative intensity
41	44
43	33
44	14
45	43
55	47
57	24
59	32
67	17
68	57
69	78
72	13
73	999
74	108
75	174
76	12
81	37
82	15
83	12
85	13
95	19
99	19
103	13
109	11
110	12
111	25
127	31
141	38
142	23
143	36
144	11
201	31
