Mass spectrum: 1,4-BUTANE SULTONE; EI-MS
Name: 4-HYDROXY-1-BUTANESULFONIC ACID DELTA SULTONE
Formula: C4H8O3S
Exact mass: 136.01941
Instrument type: EI-MS
m/z	relative intensity
15	33
17	15
18	63
26	44
27	238
28	88
29	88
30	22
31	42
38	24
39	213
40	102
41	470
42	999
43	111
44	27
48	37
51	10
53	17
54	349
55	56
57	12
64	26
65	21
71	183
72	12
78	20
106	14
107	15
121	12
