Mass spectrum: 1,3-BIS(PENTAMETYLDISILANYL)BENZENE; EI-MS
Formula: C16H34Si4
Exact mass: 338.17376
Instrument type: EI-MS
m/z	relative intensity
73	313
74	25
75	12
116	999
117	137
118	68
131	72
132	12
177	215
178	45
179	17
191	30
192	11
207	182
208	37
209	15
235	15
250	10
265	63
266	21
323	10
338	59
339	24
340	11
