Mass spectrum: 3H,4H-PYRROLO(1,2-D))1,2,4)TRIAZINE-4-THIONE; EI-MS
Formula: C6H5N3S
Exact mass: 151.02042
Instrument type: EI-MS
m/z	relative intensity
50	114
51	184
52	293
53	92
58	52
59	148
60	71
62	12
63	313
64	258
65	336
66	534
67	52
69	79
70	101
71	50
72	85
75	56
76	59
78	126
79	181
92	158
93	509
94	64
95	60
96	76
119	137
122	52
135	48
151	999
152	92
153	75
