Mass spectrum: SALICYLIC ACID; EI-MS
Name: ORTHO-HYDROXYBENZOIC ACID
Formula: C7H6O3
Exact mass: 138.03169
Instrument type: EI-MS
m/z	relative intensity
26	12
27	29
29	25
31	11
37	41
38	87
39	204
40	15
45	47
46	55
50	37
51	23
53	86
55	44
60	11
61	28
62	54
63	167
64	232
65	130
66	24
69	13
74	14
81	21
92	732
93	78
120	999
121	136
122	11
138	625
139	52
