Mass spectrum: TERT-BUTYLCHLORODIMETHYLSILANE; EI-MS
Formula: C6H15ClSi
Exact mass: 150.06315
Instrument type: EI-MS
m/z	relative intensity
56	999
57	570
58	183
59	634
63	70
65	106
67	21
71	56
72	63
73	134
74	197
75	14
78	14
79	21
93	528
94	42
95	183
150	23
152	10
