Mass spectrum: CHLOROETHYLMETHYL(PARA-TOLYL)SILANE; EI-MS
Formula: C10H15ClSi
Exact mass: 198.06315
Instrument type: EI-MS
m/z	relative intensity
51	42
53	74
63	495
64	32
65	295
66	21
67	32
77	74
78	63
79	158
80	21
82	32
89	32
91	368
92	32
93	32
103	53
104	11
105	137
106	21
107	21
117	21
119	63
131	32
135	32
141	21
153	11
155	116
156	11
157	32
163	11
168	53
169	999
170	137
171	368
172	32
183	21
198	137
199	11
200	42
