Mass spectrum: 1-METHYL-4-(11-METHOXYCARBONYL-5,9-DIMETHYL-1-OXOUNDECA-4,8-DIENYL)-PIPERADINE; EI-MS
Formula: C20H34N2O3
Exact mass: 350.25694
Instrument type: EI-MS
m/z	relative intensity
43	188
44	194
56	271
57	290
58	429
70	494
81	339
83	180
98	407
99	536
101	648
127	234
166	323
209	999
210	254
277	367
319	113
350	385
