Mass spectrum: 2,4-DI-TERT-BUTYLPHENOL; EI-MS
Formula: C14H22O
Exact mass: 206.16707
Instrument type: EI-MS
m/z	relative intensity
420	162
430	14
510	25
520	11
530	18
550	30
570	431
580	21
600	41
640	14
650	21
660	25
670	11
720	11
730	46
740	112
770	35
790	17
870	11
880	47
910	47
1050	23
1070	36
1150	31
1160	12
1170	16
1190	12
1210	12
1280	17
1290	11
1330	15
1350	20
1470	18
1490	10
1610	17
1630	48
1750	37
1910	999
1920	151
1930	11
2060	158
2070	24
