Mass spectrum: META-TOLUOYL CHLORIDE; EI-MS
Name: 3-METHYLBENZOYL CHLORIDE
Formula: C8H7ClO
Exact mass: 154.01854
Instrument type: EI-MS
m/z	relative intensity
27	14
37	14
38	30
39	102
41	16
46	11
50	68
51	58
52	16
61	26
62	62
63	139
64	34
65	190
66	11
74	25
75	19
76	14
85	10
86	16
87	13
89	107
90	53
91	642
92	53
119	999
120	89
154	72
156	22
