Mass spectrum: 3,4-DICHLOROPHENOL; EI-MS
Formula: C6H4Cl2O
Exact mass: 161.96392
Instrument type: EI-MS
m/z	relative intensity
29	26
35	15
36	12
37	40
38	30
39	24
49	29
50	24
53	26
60	16
61	53
62	82
63	229
64	26
72	31
73	98
74	27
75	32
81	14
97	25
98	67
99	304
100	39
101	100
107	13
109	11
126	40
127	26
128	16
133	43
134	27
135	28
136	17
162	999
163	72
164	659
165	45
166	104
