Mass spectrum: 5,5'-DIETHYL-BARBITURIC ACID; EI-MS
Name: BARBITAL
Formula: C8H12N2O3
Exact mass: 184.08479
Instrument type: EI-MS
m/z	relative intensity
26	24
27	132
28	41
29	155
30	12
38	17
39	236
40	35
41	267
42	45
43	40
44	81
51	12
52	18
53	71
54	71
55	400
56	69
57	24
67	17
68	15
69	56
70	37
80	10
83	80
84	11
85	31
94	20
98	106
112	129
113	18
126	14
141	814
142	79
155	512
156	999
157	208
158	23
166	13
169	11
183	19
185	537
186	351
187	38
