Mass spectrum: ETHYL 3-METHYL-5-METHYLPYRROLE-2-CARBOXYLATE; EI-MS
Formula: C9H13NO2
Exact mass: 167.09463
Instrument type: EI-MS
m/z	relative intensity
38	21
39	168
40	53
41	164
42	75
43	24
45	11
50	13
51	39
52	59
53	92
54	29
63	22
64	26
65	209
66	272
67	184
68	14
77	19
78	24
80	14
91	14
92	118
93	266
94	227
95	261
96	19
110	17
120	305
121	877
122	622
123	85
138	345
139	149
140	12
152	13
166	14
167	999
168	106
169	9
