Mass spectrum: META-TOLYLACETIC ACID; EI-MS
Name: META-METHYLPHENYLACETIC ACID
Formula: C9H10O2
Exact mass: 150.06808
Instrument type: EI-MS
m/z	relative intensity
41	19
42	15
43	77
44	2
45	20
55	37
56	33
57	5
58	40
59	16
60	38
69	3
70	27
71	32
73	16
77	5
78	16
79	70
83	16
85	2
91	166
92	13
103	35
104	4
105	999
106	156
107	16
149	2
150	520
151	64
