Mass spectrum: 3-(3-HYDROXYPHENYL)PROPIONIC ACID; EI-MS
Formula: C9H10O3
Exact mass: 166.06299
Instrument type: EI-MS
m/z	relative intensity
65	17
77	90
78	11
79	20
91	81
92	18
93	31
94	30
95	12
103	50
107	373
108	28
119	19
120	513
121	459
122	41
147	12
148	16
149	35
166	999
167	108
168	12
