Mass spectrum: 3-PHENYLPROPYL BENZOATE; EI-MS
Formula: C16H16O2
Exact mass: 240.11503
Instrument type: EI-MS
m/z	relative intensity
27	17
39	40
41	18
50	27
51	128
52	11
63	14
65	63
78	61
79	27
91	216
92	21
103	33
104	17
105	296
106	19
115	24
116	20
117	508
118	999
119	97
