Mass spectrum: METHYLDIPHENYLSILANE; EI-MS
Formula: C13H14Si
Exact mass: 198.08648
Instrument type: EI-MS
m/z	relative intensity
52	28
53	77
54	268
55	275
56	28
65	21
66	21
67	35
69	21
77	56
78	42
79	120
91	35
93	49
95	14
98	21
103	49
105	732
106	85
107	21
119	42
120	999
121	176
122	35
129	14
155	21
165	14
180	14
181	63
182	14
183	197
184	28
197	92
198	148
199	21
