Mass spectrum: 4-(2,5-DIHYDROXY-3,4,6-TRIMETHYLPHENYL)-3-OXO-2-BUTENIC ACID; EI-MS
Formula: C13H14O5
Exact mass: 250.08412
Instrument type: EI-MS
m/z	relative intensity
38	20
49	60
53	40
55	8
67	80
77	80
91	90
134	6
161	80
162	60
175	50
176	6
189	70
190	180
191	270
203	23
204	420
205	920
206	130
250	999
251	140
