Mass spectrum: ETHYL 4-THIOMETHYLPHENYLACETATE; EI-MS
Formula: C11H14O2S
Exact mass: 210.07145
Instrument type: EI-MS
m/z	relative intensity
39	31
43	14
45	40
47	17
51	26
52	10
62	11
63	46
64	14
65	19
69	23
77	52
78	99
79	17
89	64
90	37
91	63
121	168
122	266
123	51
124	19
135	35
136	10
137	999
138	133
139	70
210	539
211	73
212	31
