Mass spectrum: ACRIDINE; EI-MS
Formula: C13H9N
Exact mass: 179.0735
Instrument type: EI-MS
m/z	relative intensity
39	16
50	21
51	24
62	14
63	35
74	23
75	35
76	38
77	13
87	14
89	55
90	55
99	11
101	12
102	12
113	11
125	15
126	31
127	21
128	12
140	13
150	37
151	83
152	86
153	46
176	13
177	73
178	191
179	999
180	152
181	12
