Mass spectrum: 3-HEPTYL ISOVALERATE; EI-MS
Formula: C12H24O2
Exact mass: 200.17763
Instrument type: EI-MS
m/z	relative intensity
27	81
29	161
39	67
41	265
42	65
43	146
44	11
53	11
54	11
55	104
56	151
57	629
58	30
59	25
60	69
61	12
69	87
70	72
83	12
85	999
86	58
87	45
98	149
99	17
102	73
103	93
115	13
143	45
171	18
