Mass spectrum: TRANS-2-HEXENYL BEZOATE; EI-MS
Formula: C13H16O2
Exact mass: 204.11503
Instrument type: EI-MS
m/z	relative intensity
27	67
29	38
39	79
41	137
42	19
50	28
51	103
52	10
53	32
54	51
55	106
56	11
57	28
65	12
67	170
76	12
77	249
78	21
79	18
81	18
82	84
83	20
105	999
106	77
117	11
123	14
175	11
204	13
