Mass spectrum: 6-BENZOYLOXY-2,5,7,8-TETRAMETHYL-3,4-DIHYDRO-2H-1-BENZOPYRAN ETHANOL ETHYL ETHER; EI-MS
Name: 2-(2-ETHOXYETHYL)-6-BENZOYLOXY-2,5,7,8-TETRAMETHYL-3,4-DIHYDRO-2H-1-BENZOPYRAN
Formula: C24H30O4
Exact mass: 382.21441
Instrument type: EI-MS
m/z	relative intensity
77	118
105	999
106	79
164	4
231	118
232	31
269	19
277	3
354	31
382	222
383	52
