Mass spectrum: 2-PYRROLIDINONE; EI-MS
Name: 2-PYRROLIDONE
Formula: C4H7NO
Exact mass: 85.05276
Instrument type: EI-MS
m/z	relative intensity
39	26
40	57
41	490
42	71
43	613
44	111
45	113
46	2
54	28
55	237
56	289
57	34
58	203
59	77
60	216
67	7
68	52
69	201
70	207
71	22
72	52
73	98
74	31
81	7
82	67
83	119
84	247
85	999
86	62
87	41
