Mass spectrum: 3-BENZOYLPROPIONIC ACID; EI-MS
Formula: C10H10O3
Exact mass: 178.06299
Instrument type: EI-MS
m/z	relative intensity
36	1
39	1
40	24
43	2
44	6
45	6
51	24
52	2
55	17
56	3
57	1
60	1
65	1
69	1
73	11
76	3
77	332
78	26
79	2
82	1
91	2
101	2
102	1
103	2
105	999
106	105
107	7
115	3
116	1
122	1
123	2
130	1
131	5
132	3
133	5
134	2
160	16
161	10
162	1
176	1
178	46
179	5
180	1
