Mass spectrum: SULFUR; EI-MS
Formula: S8
Exact mass: 255.77657
Instrument type: EI-MS
m/z	relative intensity
32	113
64	999
65	15
66	87
86	16
96	242
98	33
128	462
129	14
130	81
160	619
161	25
162	137
164	12
192	255
193	12
194	67
224	74
226	23
256	874
257	56
258	310
259	17
260	49
