Mass spectrum: 1,1,1,2-TETRAMETHYLDISILANE; EI-MS
Formula: C4H14Si2
Exact mass: 118.0634
Instrument type: EI-MS
m/z	relative intensity
43	55
44	11
45	60
59	43
72	17
73	999
74	93
75	40
87	11
101	32
102	33
103	115
104	21
105	10
116	26
117	36
118	125
119	24
120	11
