Mass spectrum: 1,3-DIHYDROBENZO(C)THIOPHENE; EI-MS
Formula: C8H8S
Exact mass: 136.03467
Instrument type: EI-MS
m/z	relative intensity
39	43
45	29
50	23
51	4
63	44
65	29
67	108
68	3
69	19
77	27
89	45
90	2
91	198
103	16
134	86
135	999
136	700
137	116
138	33
