Mass spectrum: BENZAMIDE; EI-MS
Formula: C7H7NO
Exact mass: 121.05276
Instrument type: EI-MS
m/z	relative intensity
16	12
27	23
28	12
37	16
38	26
39	35
44	89
49	14
50	134
51	296
52	47
63	12
65	14
73	13
74	57
75	32
76	50
77	713
78	99
104	13
105	999
106	78
121	913
122	90
