Mass spectrum: 2,3,4-TRIMETHOXYBENZOIC ACID; EI-MS
Formula: C10H12O5
Exact mass: 212.06847
Instrument type: EI-MS
m/z	relative intensity
39	42
41	22
43	18
45	18
53	39
55	26
59	25
65	63
67	20
69	21
71	26
77	54
78	17
79	26
81	59
83	25
92	17
93	48
94	27
95	100
96	19
98	20
105	17
106	26
107	44
108	35
109	132
110	23
111	33
119	19
120	27
121	32
122	22
123	55
124	35
126	20
131	17
133	22
134	38
135	54
136	31
137	439
138	48
139	311
140	24
141	30
148	26
149	26
151	62
152	84
153	19
154	32
162	19
163	32
164	28
165	109
166	31
167	281
168	33
169	91
179	398
180	44
181	29
182	30
183	151
184	16
193	54
195	89
197	188
198	20
212	999
213	108
214	15
