Mass spectrum: 3-ACETYLTHIOPROPIONIC ACID; EI-MS
Formula: C5H8O3S
Exact mass: 148.01941
Instrument type: EI-MS
m/z	relative intensity
15	19
27	18
28	34
29	13
42	11
43	999
44	23
45	35
47	11
55	12
59	16
60	61
61	22
73	11
88	275
89	16
90	13
106	21
120	110
130	62
148	40
149	4
