Mass spectrum: METHYL 3,5,5-TRIMETHYLHEXANOATE; EI-MS
Formula: C10H20O2
Exact mass: 172.14633
Instrument type: EI-MS
m/z	relative intensity
15	66
27	76
29	161
31	15
39	117
41	405
42	66
43	174
45	11
53	28
55	206
56	161
57	791
58	32
59	149
67	17
69	78
71	30
73	101
74	999
75	46
81	11
83	524
84	31
97	82
98	16
99	27
101	25
115	108
116	262
117	157
118	11
125	106
141	101
157	88
