Mass spectrum: DI-IODOMETHANE; EI-MS
Formula: CH2I2
Exact mass: 267.82459
Instrument type: EI-MS
m/z	relative intensity
12	21
13	48
14	90
127	693
128	26
134	14
139	89
140	90
141	896
142	11
254	150
266	10
267	16
268	999
269	11
