Mass spectrum: 2-PARA-TOLYL-4,4-DIMETHYLPERHYDROPYRROLO(3,4-C)PYRROLE-1,3-DIONE; EI-MS
Formula: C15H18N2O2
Exact mass: 258.13683
Instrument type: EI-MS
m/z	relative intensity
40	90
41	39
42	94
43	112
54	55
55	58
56	61
67	194
68	48
70	54
71	155
77	67
78	39
80	104
81	62
82	999
83	51
91	57
94	37
96	61
104	86
105	34
106	21
132	104
133	114
134	14
243	46
258	15
