Mass spectrum: TRICHLOROACETIC ACID METHYL ESTER; EI-MS
Formula: C3H3Cl3O2
Exact mass: 175.91986
Instrument type: EI-MS
m/z	relative intensity
47	57
49	26
59	999
60	35
61	13
63	39
65	13
82	112
84	72
86	13
110	18
112	14
113	45
115	27
117	319
119	296
121	100
123	10
141	67
143	60
