Mass spectrum: 2,4-PENTANEDIONE; EI-MS
Name: ACETYLACETONE
Formula: C5H8O2
Exact mass: 100.05243
Instrument type: EI-MS
m/z	relative intensity
14	14
15	79
18	11
26	16
27	55
28	11
29	39
31	35
38	12
39	46
41	52
42	55
43	999
44	23
55	16
58	39
72	45
85	491
86	21
100	425
101	28
