Mass spectrum: METHYL 2-(N-((4S,5R)-4-METHYL-5-PHENYL-2-OXAZOLIDINONE-3-CARBAMOYL))AMINOACETATE; EI-MS
Formula: C14H16N2O5
Exact mass: 292.10592
Instrument type: EI-MS
m/z	relative intensity
142	44
145	10
146	14
159	30
160	573
161	68
162	19
176	25
177	82
189	149
190	18
233	999
234	158
235	16
248	12
249	10
260	45
261	92
262	13
292	855
293	141
294	18
