Mass spectrum: 4-ETHOXYCARBONYL-5-METHYL-6-(1-PROPENYL)-2-(PARA-TOLYL)PERHYDROPYRROLO(3,4-C)PYRROLE-1,3-DIONE (3A,4-TRANS-6,6A-CIS); EI-MS
Name: (4R,6S)-4-ETHOXYCARBONYL-5-METHYL-6-(1-PROPENYL)-2-(PARA-TOLYL)PERHYDROPYRROLO(3,4-C)PYRROLE-1,3-DIONE
Formula: C20H24N2O4
Exact mass: 356.17361
Instrument type: EI-MS
m/z	relative intensity
38	44
40	41
41	154
51	34
53	36
66	26
67	23
76	75
77	68
78	51
79	47
80	101
81	54
91	63
94	134
96	131
104	49
105	76
106	73
107	88
120	43
121	26
122	471
123	46
132	60
133	73
257	92
283	999
284	203
285	26
309	30
327	40
341	39
356	106
357	23
