Mass spectrum: QUINOLINE; EI-MS
Formula: C9H7N
Exact mass: 129.05785
Instrument type: EI-MS
m/z	relative intensity
51	100
52	21
55	14
62	12
63	30
64	14
65	21
71	15
73	13
74	44
75	64
76	86
77	31
78	25
85	15
91	12
100	11
101	60
102	229
103	69
105	36
127	16
128	180
129	999
130	105
