Mass spectrum: ISO-BUTYLBENZENE; EI-MS
Formula: C10H14
Exact mass: 134.10955
Instrument type: EI-MS
m/z	relative intensity
27	11
41	46
43	201
55	11
56	25
65	25
78	21
91	999
92	844
93	60
105	11
119	21
134	440
135	49
