Mass spectrum: DIPHENETHYL SUCCINATE; EI-MS
Formula: C20H22O4
Exact mass: 326.15181
Instrument type: EI-MS
m/z	relative intensity
27	18
39	15
51	18
55	15
56	19
65	28
77	65
78	26
79	59
91	82
101	10
103	49
104	999
105	388
106	24
