Mass spectrum: ISOPROPYLDIMETHYLSILANE (D); EI-MS
Formula: C5H14Si
Exact mass: 102.08648
Instrument type: EI-MS
m/z	relative intensity
15	10
27	35
28	23
29	34
31	48
32	28
39	28
41	34
42	24
43	125
44	55
45	42
46	55
53	17
55	18
56	11
57	17
58	293
59	218
60	999
61	83
62	38
67	10
72	11
73	40
74	10
86	11
88	29
101	19
103	88
104	11
