Mass spectrum: 1,1-DIMETHYLSILACYCLOHEXANE(D6-DIMETHYL); EI-MS
Formula: C7H16Si
Exact mass: 128.10213
Instrument type: EI-MS
m/z	relative intensity
28	21
46	12
62	120
64	25
65	81
74	15
77	11
78	110
79	20
82	35
86	18
87	33
88	536
89	51
90	22
91	52
92	19
105	21
106	54
114	12
115	18
116	999
117	122
118	37
133	10
134	428
135	62
136	17
