Mass spectrum: 2',4',5'-TRIMETHOXYACETOPHENONE; EI-MS
Formula: C11H14O4
Exact mass: 210.08921
Instrument type: EI-MS
m/z	relative intensity
43	17
77	12
107	15
109	17
122	17
123	16
124	23
125	11
135	29
137	43
139	56
149	10
151	31
152	40
164	18
165	22
167	67
180	37
181	28
192	12
193	54
195	999
196	122
197	16
210	618
211	83
212	12
