Mass spectrum: 2,2,5,5-TETRAMETHYLCYCLOPENTANONE; EI-MS
Formula: C9H16O
Exact mass: 140.12012
Instrument type: EI-MS
m/z	relative intensity
27	105
28	41
29	96
39	126
40	36
41	369
42	48
43	33
53	40
55	106
56	999
57	431
69	168
70	38
72	145
97	31
112	41
125	20
140	155
141	19
