Mass spectrum: DIETHYLIN; EI-MS
Name: GLYCEROL ALPHA,ALPHA-DIETHYL ESTER
Formula: C7H16O3
Exact mass: 148.10994
Instrument type: EI-MS
m/z	relative intensity
15	77
18	17
19	40
26	33
27	271
28	62
29	482
30	17
31	673
32	11
33	14
39	24
41	57
42	51
43	464
44	231
45	280
47	36
55	17
56	14
57	211
58	148
59	929
60	94
61	999
62	26
72	18
73	66
74	16
75	60
85	107
86	451
87	50
88	55
89	334
90	21
101	37
102	53
103	41
105	15
129	20
130	32
