Mass spectrum: 2-METHYL-1-PYRROLINE; EI-MS
Formula: C5H9N
Exact mass: 83.0735
Instrument type: EI-MS
m/z	relative intensity
15	42
27	38
28	58
29	31
30	11
39	39
40	36
41	199
42	599
43	429
44	12
53	13
54	94
55	999
56	75
57	33
58	164
67	15
68	16
69	16
70	73
82	33
83	679
84	60
85	10
