Mass spectrum: 2'-HYDROXY-4',6'-DIMETHOXYACETOPHENONE; EI-MS
Formula: C10H12O4
Exact mass: 196.07356
Instrument type: EI-MS
m/z	relative intensity
95	17
110	13
111	11
123	16
125	14
138	37
151	17
166	57
167	10
178	71
179	20
181	999
182	104
183	12
196	430
197	50
