Mass spectrum: 4-BROMOPHENYLACETIC ACID; EI-MS
Formula: C8H7BrO2
Exact mass: 213.96294
Instrument type: EI-MS
m/z	relative intensity
36	8
39	18
41	5
44	8
45	11
51	9
53	4
63	16
64	9
65	28
77	35
78	13
79	16
80	6
82	6
89	131
90	216
91	189
92	15
105	5
125	13
135	5
143	4
145	5
169	999
170	87
171	982
172	80
214	543
215	45
216	522
217	46
218	4
