Mass spectrum: 1-METHYL-SILACYCLOBUTANE (1-D); EI-MS
Formula: C4H10Si
Exact mass: 86.05518
Instrument type: EI-MS
m/z	relative intensity
28	10
29	10
41	10
42	20
43	232
44	206
45	48
46	73
47	10
55	10
57	13
58	342
59	999
60	103
61	35
70	15
71	17
72	42
80	10
85	11
86	18
87	342
88	33
89	13
