Mass spectrum: DICHLOROPHENYLSILANE; EI-MS
Formula: C6H6Cl2Si
Exact mass: 175.96158
Instrument type: EI-MS
m/z	relative intensity
52	170
53	298
54	64
55	74
64	255
65	96
71	85
72	85
74	21
75	11
78	999
79	64
101	21
102	43
105	11
141	12
177	31
178	26
175	43
176	43
