Mass spectrum: 4-(9-PHENANTHRYL)-3,5-DIMETHYL-N,N-DIMETHYLANILINE; EI-MS
Formula: C24H23N
Exact mass: 325.18305
Instrument type: EI-MS
m/z	relative intensity
33	250
42	308
45	308
163	367
268	308
311	275
313	308
325	342
326	999
327	467
