Mass spectrum: INDOLE-3-CARBALDEHYDE; EI-MS
Formula: C9H7NO
Exact mass: 145.05276
Instrument type: EI-MS
m/z	relative intensity
28	11
29	35
39	14
40	20
51	17
52	16
53	13
61	22
62	59
63	87
64	20
65	11
74	19
75	13
76	11
85	11
86	22
87	36
88	39
89	235
90	54
114	17
115	34
116	259
117	49
143	15
144	999
145	832
146	87
