Mass spectrum: SILACYCLOPENTANE (2,2,5,5-D4); EI-MS
Formula: C4H10Si
Exact mass: 86.05518
Instrument type: EI-MS
m/z	relative intensity
27	21
28	83
29	76
30	59
31	31
32	30
33	15
40	30
41	25
42	12
43	82
44	197
45	135
46	45
47	31
48	13
53	23
54	35
55	21
56	47
57	65
58	88
59	167
60	999
61	260
62	98
63	15
73	18
74	14
86	13
87	15
88	53
89	96
90	314
91	35
92	13
