Mass spectrum: PREDNISOLONE; EI-MS
Name: 11,17,21-TRIHYDROXYPREGNA-1,4-DIENE-3,20-DIONE
Formula: C21H28O5
Exact mass: 360.19367
Instrument type: EI-MS
m/z	relative intensity
28	47
29	45
30	15
31	4
39	15
41	73
42	13
43	9
53	26
55	72
57	40
60	3
65	20
67	39
69	32
77	7
79	49
81	40
83	13
91	13
92	18
93	52
94	12
95	6
97	30
103	14
105	64
106	1
107	106
108	24
109	48
111	1
115	24
117	34
119	82
120	4
121	545
122	999
123	172
124	2
128	17
129	20
131	31
132	2
133	66
134	89
135	141
136	5
137	23
143	20
145	48
146	3
147	185
148	28
149	32
157	2
158	13
159	58
160	33
161	7
163	16
165	31
171	49
172	2
173	43
175	17
177	12
179	3
185	21
186	14
187	15
195	4
197	16
209	41
210	15
211	2
213	16
221	16
223	31
224	3
225	104
226	27
227	16
238	2
239	47
240	58
241	16
265	5
266	15
267	21
283	45
300	3
301	32
330	25
360	28
