Mass spectrum: 4-CHLORO-2-HYDROXYMETHYLPHENOL; EI-MS
Formula: C7H7ClO2
Exact mass: 158.01346
Instrument type: EI-MS
m/z	relative intensity
32	25
37	46
38	64
46	20
49	27
50	54
51	31
53	68
61	57
62	96
63	196
64	92
65	196
66	34
73	118
74	44
75	85
99	170
100	44
101	53
102	14
110	206
111	17
126	15
127	112
128	77
129	44
130	26
138	159
139	13
140	53
154	17
155	617
156	999
157	379
158	369
159	52
