Mass spectrum: 5ALPHA-ANDROSTAN-17BETA-OL-3-ONE BENZOATE; EI-MS
Formula: C26H34O3
Exact mass: 394.25079
Instrument type: EI-MS
m/z	relative intensity
68	11
71	24
77	13
81	22
91	12
93	27
94	158
95	41
97	10
98	11
105	999
106	72
107	41
108	22
109	16
111	12
119	11
120	15
121	12
122	38
123	34
124	71
125	11
131	16
133	19
134	11
135	29
136	26
137	35
144	16
145	27
146	18
147	35
148	88
149	215
150	27
151	13
157	14
158	11
159	18
160	10
161	87
162	27
163	25
164	14
165	13
171	15
173	22
175	26
176	20
177	13
179	17
185	22
187	23
189	11
197	12
200	38
201	29
202	15
203	22
204	12
213	19
214	27
215	17
216	25
217	34
229	18
230	12
231	25
233	11
239	22
244	58
245	11
246	24
253	16
254	16
256	11
257	223
258	52
271	64
272	815
273	184
274	21
288	11
289	19
394	11
