Mass spectrum: 1-DIMETHYLAMINO-2-PROPANOL; EI-MS
Name: N,N-DIMETHYL-2-HYDROXYPROPYLAMINE
Formula: C5H13NO
Exact mass: 103.09971
Instrument type: EI-MS
m/z	relative intensity
15	48
27	22
28	17
29	30
30	61
31	15
39	14
41	29
42	147
43	52
44	96
45	25
56	13
57	27
58	999
59	46
86	14
88	51
103	34
