Mass spectrum: 1-(4-BENZYLOXY-3-METHOXYPHENYL)-5-HYDROXYDECAN-3-ONE; EI-MS
Formula: C24H32O4
Exact mass: 384.23006
Instrument type: EI-MS
m/z	relative intensity
39	66
41	105
43	144
55	119
65	113
77	53
91	999
92	92
107	71
119	53
125	47
133	44
135	46
136	45
137	189
149	189
150	96
151	146
193	68
227	49
284	60
384	144
385	44
