Mass spectrum: METHYL 2,3-DIMETHYL-5-PHENYL-1-PYRROLINE-4-CARBOXYLATE (3,4-TRANS-4,5-CIS); EI-MS
Name: METHYL (3R,4R,5S)-2,3-DIMETHYL-5-PHENYL-1-PYRROLINE-4-CARBOXYLATE
Formula: C14H17NO2
Exact mass: 231.12593
Instrument type: EI-MS
m/z	relative intensity
41	71
69	76
77	52
89	116
90	263
91	102
104	76
115	61
129	62
130	391
131	999
132	98
171	134
172	297
173	49
200	79
231	446
232	66
