Mass spectrum: PENTAMETHYLDISILANE; EI-MS
Formula: C5H16Si2
Exact mass: 132.07905
Instrument type: EI-MS
m/z	relative intensity
15	31
28	10
29	49
31	62
42	18
43	190
44	40
45	142
53	10
55	9
57	18
58	49
59	119
60	9
69	10
72	10
73	999
74	80
75	31
101	10
116	22
117	139
118	22
131	22
132	102
133	10
