Mass spectrum: HEXYL 10-UNDECENOATE; EI-MS
Formula: C17H32O2
Exact mass: 268.24023
Instrument type: EI-MS
m/z	relative intensity
27	135
29	227
39	145
41	668
42	226
43	999
44	22
45	16
53	50
54	96
55	714
56	363
57	165
59	13
60	86
61	145
67	157
68	107
69	330
70	71
71	34
73	111
74	12
79	23
80	16
81	125
82	150
83	249
84	432
85	179
86	12
87	33
93	17
94	18
95	53
96	156
97	138
98	142
99	26
100	30
101	46
102	12
107	20
109	21
110	41
111	38
112	18
113	13
114	38
115	18
119	11
121	13
122	54
123	69
124	146
125	60
127	17
129	14
137	28
138	22
141	13
147	17
148	30
149	93
157	11
165	18
166	107
167	73
185	21
