Mass spectrum: CYCLOPROPYLMETHANOL; EI-MS
Name: HYDROXYMETHYLCYCROPROPANE
Formula: C4H8O
Exact mass: 72.05751
Instrument type: EI-MS
m/z	relative intensity
14	16
15	40
26	58
27	212
29	128
31	244
37	26
38	51
39	270
40	38
41	141
42	122
43	294
44	999
45	33
50	19
51	20
53	42
54	31
55	173
56	15
57	49
67	17
71	19
