Mass spectrum: ISOBUTYL VINYL ESTER; EI-MS
Formula: C6H12O
Exact mass: 100.08882
Instrument type: EI-MS
m/z	relative intensity
29	145
41	370
42	18
43	27
44	126
45	42
55	31
56	718
57	999
58	49
85	16
100	351
101	36
