Mass spectrum: (2S,2AR,5AS,6R)-1-BENZOYL-6-TRIMETHYLSILYL-3,5-DIOXO-2,4-DIPHENYL-1,2,3,4,5,6-HEXAHYDROPYRROLO(3,4-C)PYRROLE; EI-MS
Formula: C28H28N2O3Si
Exact mass: 468.18692
Instrument type: EI-MS
m/z	relative intensity
51	68
59	35
73	685
74	66
75	84
77	535
78	48
90	31
91	38
103	68
104	64
105	999
106	79
115	43
117	32
128	67
131	44
163	37
177	43
178	45
205	31
206	39
246	227
247	48
248	44
321	60
378	412
379	109
380	106
453	191
454	75
467	104
468	103
469	55
