Mass spectrum: 3,5,6-TRIHYDROXYTROPOLONE; EI-MS
Formula: C7H6O5
Exact mass: 170.02152
Instrument type: EI-MS
m/z	relative intensity
37	119
38	177
39	387
40	228
41	372
42	891
43	350
45	128
49	67
50	226
51	164
52	53
53	735
54	159
55	200
66	143
67	133
68	209
69	591
70	140
71	221
77	87
78	80
95	87
96	331
113	306
141	96
142	999
143	69
170	560
171	76
