Mass spectrum: ORTHO-DIMETHOXYBENZENE; EI-MS
Name: 1,2-DIMETHOXYBENENE
Formula: C8H10O2
Exact mass: 138.06808
Instrument type: EI-MS
m/z	relative intensity
26	75
27	72
29	100
30	16
31	27
37	44
38	125
39	365
40	30
41	282
49	24
50	280
51	568
52	505
53	117
54	28
55	35
61	32
62	92
63	288
64	122
65	572
66	50
67	100
73	11
74	53
75	36
76	40
77	682
78	124
79	308
80	128
81	14
89	64
90	41
91	972
92	999
93	104
95	559
96	38
105	89
106	13
107	119
108	15
121	24
123	190
124	17
138	472
139	46
