Mass spectrum: TRANS-4-METHOXYCINNAMIC ACID; EI-MS
Formula: C10H10O3
Exact mass: 178.06299
Instrument type: EI-MS
m/z	relative intensity
43	39
57	22
69	44
77	5
79	38
90	17
91	25
103	2
107	21
117	21
118	28
121	4
132	78
133	126
134	25
135	3
147	23
151	21
160	13
161	24
162	34
163	28
176	12
177	17
178	999
179	123
180	15
