Mass spectrum: 6-ETHYL-4-METHOXYCARBONYL-5-PHENYL-2-(PARA-TOLYL)PERHYDROPYRROLO(3,4-C)PYRROLE-1,3-DIONE (3A,4-TRANS-6,6A-CIS); EI-MS
Name: (4R,6S)-6-ETHYL-4-METHOXYCARBONYL-5-PHENYL-2-(PARA-TOLYL)PERHYDROPYRROLO(3,4-C)PYRROLE-1,3-DIONE
Formula: C23H24N2O4
Exact mass: 392.17361
Instrument type: EI-MS
m/z	relative intensity
77	88
91	42
104	62
115	27
132	32
133	67
143	69
144	101
156	26
170	46
172	259
173	43
202	34
333	999
334	238
335	41
363	218
364	53
392	242
393	64
