Mass spectrum: SPIRO(5.5)SILAUNDECANE; EI-MS
Formula: C10H20Si
Exact mass: 168.13343
Instrument type: EI-MS
m/z	relative intensity
59	23
68	13
69	12
70	39
71	110
72	15
83	56
84	158
85	30
86	11
95	14
96	23
97	346
98	377
99	292
100	46
101	17
111	68
112	515
113	96
114	39
125	281
126	332
127	89
128	23
139	34
140	706
141	116
142	51
168	999
169	181
170	69
