Mass spectrum: DODECAMETHYLCYCLOHEXASILANE; EI-MS
Formula: C12H36Si6
Exact mass: 348.14326
Instrument type: EI-MS
m/z	relative intensity
38	28
39	37
42	57
43	999
56	20
57	24
58	345
71	23
73	81
83	26
105	26
131	33
199	34
201	44
215	29
259	34
348	53
349	55
350	31
