Mass spectrum: CIS-5-(6-(1,3-DIOXAN-2-YL)HEXYL)-TRANS-4-(CIS-1-OCTENYL)-2,REF.-3-DIPHENYLISOXAZOLIDINE; EI-MS
Name: (3S,4S,5R)-5-(6-(1,3-DIOXAN-2-YL)HEXYL)-4-(1-OCTENYL)-2,3-DIPHENYLISOXAZOLIDINE
Formula: C33H47NO3
Exact mass: 505.35559
Instrument type: EI-MS
m/z	relative intensity
40	124
42	98
55	157
57	93
59	109
67	138
69	112
77	299
81	106
87	525
91	525
92	106
95	152
104	214
105	250
129	82
143	84
168	93
169	86
180	459
181	633
182	484
196	326
197	490
198	826
199	579
220	119
306	91
505	999
