Mass spectrum: 2,6-PYRIDINE DICARBOXYLIC ACID; EI-MS
Formula: C7H5NO4
Exact mass: 167.02186
Instrument type: EI-MS
m/z	relative intensity
18	11
26	49
27	53
28	32
29	13
37	23
38	40
39	92
40	13
44	52
45	150
49	32
50	189
51	282
52	164
53	46
65	11
66	46
67	11
75	46
76	91
77	558
78	164
79	71
80	14
93	10
94	65
104	13
105	796
106	63
122	140
123	999
124	78
150	185
151	16
168	313
169	26
