Mass spectrum: 4,7-DI(4-BUTOXYPHENYL)-6-(3,4-DIMETHOXYPHENYL)-1,2,5-THIADIAZOLO(3,4-C)PYRIDINE; EI-MS
Formula: C33H35N3O4S
Exact mass: 569.23483
Instrument type: EI-MS
m/z	relative intensity
30	587
39	72
41	559
43	182
44	116
55	136
57	325
69	68
138	79
370	65
382	69
397	70
398	77
412	69
440	110
456	111
496	131
512	244
513	108
567	144
568	999
569	411
570	132
