Mass spectrum: DIMETHYL CARBONATE; EI-MS
Name: CARBONIC ACID DIMETHYL ESTER
Formula: C3H6O3
Exact mass: 90.03169
Instrument type: EI-MS
m/z	relative intensity
15	702
16	16
29	473
30	72
31	594
33	89
43	18
44	35
45	999
46	23
47	17
59	569
60	63
61	42
62	70
90	73
91	36
