Mass spectrum: 2-PHENYL-PROPANAL; EI-MS
Formula: C9H10O
Exact mass: 134.07316
Instrument type: EI-MS
m/z	relative intensity
27	27
28	18
39	52
50	5
51	115
52	25
63	47
65	4
74	21
75	16
77	313
78	8
79	296
80	18
89	24
91	15
102	23
103	211
104	68
105	999
107	225
134	261
135	25
