Mass spectrum: 2-METHOXY-3-PHENYLMETHOXYBENZALDEHYDE; EI-MS
Formula: C15H14O3
Exact mass: 242.09429
Instrument type: EI-MS
m/z	relative intensity
65	35
91	999
92	75
108	20
122	20
150	94
151	43
213	64
214	30
242	44
243	8
