Mass spectrum: TRANS-2-HEXENYL 2-ETHYLBUTYRATE; EI-MS
Formula: C12H22O2
Exact mass: 198.16198
Instrument type: EI-MS
m/z	relative intensity
27	162
29	184
39	141
41	433
42	55
43	627
44	16
53	53
54	98
55	530
56	40
57	66
67	162
68	11
69	22
70	19
71	999
72	62
81	19
82	144
83	308
84	21
87	13
88	15
99	354
100	23
117	16
169	17
198	24
