Mass spectrum: TRANS-2-HEXENYL 2-METHYLBUTYRATE; EI-MS
Formula: C11H20O2
Exact mass: 184.14633
Instrument type: EI-MS
m/z	relative intensity
27	146
29	269
39	149
41	485
42	40
43	29
53	49
54	90
55	468
56	57
57	999
58	43
67	167
69	11
81	21
82	125
83	255
84	22
85	401
86	16
103	14
184	21
