Mass spectrum: SILACYCLOHEXANE (1-D); EI-MS
Formula: C5H12Si
Exact mass: 100.07083
Instrument type: EI-MS
m/z	relative intensity
28	17
31	14
32	11
41	26
43	48
44	137
45	147
46	27
47	11
55	10
56	10
57	26
58	72
59	83
60	80
61	11
69	17
70	51
71	124
72	314
73	999
74	121
75	42
83	19
85	11
86	27
97	35
98	80
99	51
100	75
101	504
102	68
103	19
