Mass spectrum: GLYCOLIC ACID; EI-MS
Name: HYDROXYACETIC ACID
Formula: C2H4O3
Exact mass: 76.01604
Instrument type: EI-MS
m/z	relative intensity
14	13
18	11
19	31
28	31
29	261
30	56
31	999
32	339
42	21
44	18
45	141
46	15
47	18
49	26
77	10
