Mass spectrum: DIMETHYL 1-PHENYLPYRROLIDINE-3,4-DICARBOXYLATE (3,4-CIS); EI-MS
Formula: C14H17NO4
Exact mass: 263.11576
Instrument type: EI-MS
m/z	relative intensity
39	110
41	115
51	157
59	134
77	486
87	83
91	379
99	90
104	323
105	119
106	176
115	86
117	182
118	90
119	180
127	69
143	117
144	999
145	556
146	80
177	196
202	167
204	212
232	106
248	68
263	768
264	129
