Mass spectrum: 2,5-PYRIDINEDICARBOXYLIC ACID; EI-MS
Name: ISOCINCHLOMERONIC ACID
Formula: C7H5NO4
Exact mass: 167.02186
Instrument type: EI-MS
m/z	relative intensity
26	11
27	13
28	12
38	16
39	30
44	17
45	70
49	19
50	87
51	127
52	60
53	19
66	18
67	21
68	29
75	25
76	43
77	123
78	140
79	33
94	46
96	26
105	44
106	31
122	87
123	999
124	72
150	34
168	35
