Mass spectrum: 1,1,2,3,3-PENTAMETHYL-1,3-DISILACYCLOPENTANE; EI-MS
Formula: C8H20Si2
Exact mass: 172.11035
Instrument type: EI-MS
m/z	relative intensity
28	27
29	48
31	93
42	26
43	323
44	53
45	211
46	18
53	32
55	69
56	14
57	46
58	189
59	621
60	60
61	29
67	26
69	44
70	18
71	100
72	36
73	378
74	32
75	17
81	20
83	60
84	16
85	220
86	61
87	35
95	18
97	473
98	58
99	70
100	17
101	46
102	22
103	29
111	17
113	63
114	17
115	104
116	162
117	64
118	21
127	31
129	999
130	173
131	98
132	16
141	26
143	48
144	273
145	55
146	23
155	25
157	853
158	167
159	82
172	709
173	151
174	69
