Mass spectrum: 2'-HYDROXY-4',5'-DIMETHOXYACETOPHENONE; EI-MS
Formula: C10H12O4
Exact mass: 196.07356
Instrument type: EI-MS
m/z	relative intensity
43	100
65	10
77	10
79	13
92	17
95	27
107	37
110	36
111	17
121	17
123	13
125	64
135	97
136	16
137	17
138	36
139	11
153	50
163	28
181	999
182	102
183	13
196	937
197	106
198	14
