Mass spectrum: 3,5-DIMETHYLPHENOL; EI-MS
Formula: C8H10O
Exact mass: 122.07316
Instrument type: EI-MS
m/z	relative intensity
15	23
26	18
27	114
29	27
37	13
38	45
39	199
40	28
41	60
42	12
43	33
50	68
51	133
52	56
53	111
54	13
55	41
60	19
61	19
62	25
63	61
64	14
65	76
66	30
67	29
74	17
75	15
77	278
78	76
79	171
80	15
81	14
89	12
91	150
92	19
93	44
94	26
95	11
103	25
104	18
105	29
107	776
108	61
121	315
122	999
123	94
