Mass spectrum: 1-ACETOXY-3-ACETYLAMINO-4,6-DICHLOROBENZENE; EI-MS
Formula: C10H9Cl2NO3
Exact mass: 260.99595
Instrument type: EI-MS
m/z	relative intensity
36	20
38	30
39	30
41	3
42	20
43	830
44	20
50	2
51	30
52	30
53	30
61	3
62	10
63	20
68	10
73	2
75	30
76	30
78	50
79	1
80	60
81	30
85	30
86	2
87	20
97	30
99	30
108	2
112	20
113	20
114	60
115	3
116	20
117	30
142	20
143	72
144	50
145	220
146	10
148	3
149	20
150	380
151	40
156	3
176	20
177	999
178	70
179	66
180	40
181	100
182	30
183	2
184	620
185	330
186	230
187	10
188	30
190	10
192	10
211	5
212	20
213	50
214	20
215	1
218	30
219	350
220	40
221	22
222	20
223	30
227	50
228	2
229	10
261	90
262	30
263	6
264	20
265	20
