Mass spectrum: (1S,2S,3E,7S,8R,11S,12Z)-7-ACETOXY-2,17-DIHYDROXY-8,11-EPIDIOXYCEMBRA-3,12,15-TRIENE; EI-MS
Formula: C22H34O6
Exact mass: 394.23554
Instrument type: EI-MS
m/z	relative intensity
40	24
41	232
42	32
43	999
44	40
45	36
47	20
50	1
51	24
52	16
53	96
54	3
55	208
56	40
57	64
58	2
59	12
60	16
61	12
65	4
66	24
67	96
68	32
69	9
70	16
71	96
72	12
77	9
78	32
79	155
80	48
81	25
82	72
83	128
84	160
85	6
86	16
87	16
91	140
92	4
93	136
94	32
95	168
96	4
97	112
98	20
99	208
100	2
101	28
103	16
105	84
106	4
107	124
108	56
109	104
110	3
111	48
112	12
113	24
115	2
117	28
118	20
119	48
120	3
121	64
122	28
123	40
124	2
125	28
126	16
127	56
128	2
130	12
131	40
132	24
133	5
134	28
135	68
136	56
137	3
138	16
139	20
141	12
142	1
143	16
144	12
145	32
146	2
147	44
148	28
149	52
150	2
151	20
152	16
153	88
154	2
155	20
157	12
159	16
161	2
162	16
163	16
164	12
165	2
167	12
169	32
175	16
189	2
190	12
191	12
193	12
207	2
208	8
209	5
213	11
214	0
215	5
225	5
253	6
316	1
358	2
376	5
394	3
