Mass spectrum: METHYLPENTYLSILANE; EI-MS
Formula: C6H16Si
Exact mass: 116.10213
Instrument type: EI-MS
m/z	relative intensity
27	70
28	29
29	49
31	3
39	46
41	91
42	67
43	16
44	84
45	780
46	48
47	2
53	13
55	53
57	22
58	8
59	269
60	25
61	12
69	2
70	94
71	35
72	98
73	999
74	85
75	36
85	30
86	25
87	71
88	55
99	13
101	3
114	116
115	55
116	41
