Mass spectrum: 1-METHYL-3-(PHENYLSULFONYL)PYRROLIDINE; EI-MS
Formula: C11H15NO2S
Exact mass: 225.08235
Instrument type: EI-MS
m/z	relative intensity
38	50
40	86
41	371
42	37
43	14
50	21
51	98
52	12
53	11
55	52
56	14
57	51
58	19
65	12
67	43
68	14
71	12
77	147
78	25
81	14
82	448
83	999
84	123
91	10
109	11
225	34
226	10
