Mass spectrum: ISOPROTHIOLANE; EI-MS
Name: DIISOPROPYL 1,3-DITHIOLANE-2-YLIDENEMALONATE
Formula: C12H18O4S2
Exact mass: 290.06465
Instrument type: EI-MS
m/z	relative intensity
41	21
43	146
59	11
60	19
61	48
74	12
85	27
89	17
102	14
116	83
117	12
118	999
119	60
120	91
129	28
134	97
144	49
145	131
146	48
147	25
159	19
160	117
161	18
162	821
163	62
164	75
173	20
176	47
178	175
179	12
180	17
187	12
189	444
190	51
191	44
204	431
205	48
206	89
231	274
232	36
233	28
290	445
291	67
292	47
