Mass spectrum: BENZOFUROXAN; EI-MS
Name: BENZOFURAN 1-OXIDE
Formula: C6H4N2O2
Exact mass: 136.02728
Instrument type: EI-MS
m/z	relative intensity
27	22
28	11
30	151
37	22
38	23
39	48
50	134
51	127
52	39
62	13
63	32
64	22
74	43
75	37
76	115
77	12
78	46
90	11
120	14
136	999
137	351
138	33
