Mass spectrum: 2-CYANO-5-METHOXYTROPONE; EI-MS
Formula: C9H7NO2
Exact mass: 161.04768
Instrument type: EI-MS
m/z	relative intensity
37	83
38	71
39	154
41	93
43	90
50	113
51	100
53	70
55	75
57	79
63	203
64	221
69	97
75	79
76	113
90	460
102	68
103	308
104	87
118	123
133	999
134	92
161	983
162	102
