Mass spectrum: 2-ACETOXY-4-(1,1-DIMETHYL-2-OXOPROPYL)TROPONE; EI-MS
Formula: C14H16O4
Exact mass: 248.10486
Instrument type: EI-MS
m/z	relative intensity
39	16
41	40
42	40
43	999
44	27
55	12
65	19
77	26
91	52
95	10
105	16
107	31
135	57
149	13
163	42
164	95
165	15
206	30
248	9
