Mass spectrum: 3-ETHOXY-3-METHYL-1-BUTENE; EI-MS
Formula: C7H14O
Exact mass: 114.10447
Instrument type: EI-MS
m/z	relative intensity
26	19
27	195
29	155
31	8
39	130
40	32
41	694
42	7
43	457
44	23
45	36
51	2
53	94
55	72
58	31
59	51
67	68
68	37
69	844
70	6
71	999
72	58
86	60
87	14
99	942
100	65
114	23
