Mass spectrum: FLUORANTHENE; EI-MS
Formula: C16H10
Exact mass: 202.07825
Instrument type: EI-MS
m/z	relative intensity
63	10
74	13
75	15
87	18
88	33
99	12
100	48
101	82
102	14
150	16
174	20
175	16
176	18
198	15
199	25
200	145
201	114
202	999
203	182
204	24
