Mass spectrum: OXINDOLE; EI-MS
Name: 2-INDOLINONE
Formula: C8H7NO
Exact mass: 133.05276
Instrument type: EI-MS
m/z	relative intensity
41	60
42	60
43	190
44	8
45	30
52	20
55	80
56	8
57	100
58	80
59	20
60	7
67	20
68	20
69	60
70	7
71	70
72	20
73	40
74	2
77	40
78	210
79	20
81	3
82	20
83	40
84	40
85	6
89	20
95	30
96	20
97	3
98	30
99	70
103	20
104	42
105	340
106	40
109	20
110	2
111	20
112	20
113	20
131	4
132	40
133	999
134	110
135	20
