Mass spectrum: TEREPHTHALIC ACID; EI-MS
Name: 1,4-BENZENEDICARBOXYLIC ACID
Formula: C8H6O4
Exact mass: 166.02661
Instrument type: EI-MS
m/z	relative intensity
27	16
28	37
29	11
37	21
38	34
39	122
45	108
49	11
50	123
51	99
52	18
53	38
62	10
63	32
64	12
65	443
66	36
73	14
74	90
75	83
76	113
77	59
78	15
79	24
93	24
103	21
104	32
105	31
121	137
122	19
138	17
149	999
150	98
151	12
155	11
166	747
167	157
168	17
