Mass spectrum: ISOPROPYL 2-(N-((4S)-4-(1-METHYLETHYL)-2-OXAZOLIDINONE-3-CARBAMOYL)(AMINOACETATE; EI-MS
Formula: C12H20N2O5
Exact mass: 272.13722
Instrument type: EI-MS
m/z	relative intensity
102	390
112	19
116	473
117	131
129	154
144	94
162	16
175	10
185	999
186	114
203	49
213	100
272	206
273	10
