Mass spectrum: 1,2,3-TRIMETHOXYBENZENE; EI-MS
Formula: C9H12O3
Exact mass: 168.07864
Instrument type: EI-MS
m/z	relative intensity
39	14
65	48
67	15
77	36
82	21
92	10
93	127
94	11
95	125
107	22
108	38
110	221
111	16
122	10
125	254
126	20
137	10
138	27
152	14
153	522
154	49
168	999
169	99
170	11
