Mass spectrum: 2,6-DIFLUOROPHENYLACETIC ACID; EI-MS
Formula: C8H6F2O2
Exact mass: 172.03359
Instrument type: EI-MS
m/z	relative intensity
45	16
51	6
57	11
63	5
75	7
77	28
81	4
83	5
95	4
96	4
101	54
107	49
108	175
109	25
124	18
125	10
126	11
127	999
128	114
129	6
144	6
152	16
154	4
172	480
173	43
174	4
