Mass spectrum: 1-(2-METHOXYPHENYL)ETHANONE; EI-MS
Formula: C9H10O2
Exact mass: 150.06808
Instrument type: EI-MS
m/z	relative intensity
43	25
77	163
78	14
79	37
92	50
105	20
107	19
120	15
132	20
133	20
135	999
136	15
150	242
151	31
152	3
