Mass spectrum: 1,4,9,14-TETRAOXO-1,4,6,7,8,9,14,15,16,17-DECAHYDRO-7,16-METHANODINAPHTHO(2,3-A:2',3'-F)CYCLODECENE; EI-MS
Formula: C27H20O4
Exact mass: 408.13616
Instrument type: EI-MS
m/z	relative intensity
77	56
115	61
128	61
152	69
165	73
181	59
186	267
187	101
195	63
197	82
198	92
210	60
211	65
212	60
223	206
224	386
225	66
393	76
408	999
409	310
410	56
