Mass spectrum: DIETHYL MALONATE; EI-MS
Formula: C7H12O4
Exact mass: 160.07356
Instrument type: EI-MS
m/z	relative intensity
14	12
15	39
26	23
27	21
28	43
29	999
30	27
31	9
41	27
42	256
43	558
44	2
45	147
47	12
55	12
59	2
60	171
61	74
69	31
70	4
73	27
86	19
87	43
88	22
89	16
105	35
115	616
116	4
132	19
135	368
136	19
160	6
161	12
