Mass spectrum: 2',6'-DIHYDROXYACETOPHENONE; EI-MS
Formula: C8H8O3
Exact mass: 152.04734
Instrument type: EI-MS
m/z	relative intensity
43	39
53	25
55	18
77	13
78	26
81	99
82	10
105	16
106	12
107	14
108	13
109	12
110	10
134	13
137	999
138	79
152	578
153	52
154	6
