Mass spectrum: 2-BUTYLCYCLOHEXANONE; EI-MS
Formula: C10H18O
Exact mass: 154.13577
Instrument type: EI-MS
m/z	relative intensity
27	133
28	13
29	117
39	131
41	303
42	89
43	71
53	46
54	60
55	283
56	82
57	23
67	50
68	25
69	72
70	177
79	14
81	24
83	142
84	21
97	97
98	999
99	63
111	90
154	22
