Mass spectrum: ISOBUTYL VINYL ETHER; EI-MS
Formula: C6H12O
Exact mass: 100.08882
Instrument type: EI-MS
m/z	relative intensity
14	18
15	89
26	56
27	372
28	67
29	533
30	12
31	123
37	11
38	33
39	357
40	51
41	999
42	86
43	104
44	158
45	62
50	12
51	13
53	27
55	108
56	483
57	739
58	40
59	18
100	140
101	17
