Mass spectrum: 3-(1-TRIMETHYLSILYLMETHYL-2-PROPENYL)CYCLOHEXANONE; EI-MS
Formula: C13H24OSi
Exact mass: 224.15964
Instrument type: EI-MS
m/z	relative intensity
37	26
38	31
39	69
41	81
42	108
43	999
44	45
45	60
53	16
54	15
55	29
57	21
58	436
59	67
67	13
69	24
72	11
73	593
74	62
75	169
76	14
77	16
79	17
85	10
91	12
97	21
115	15
127	121
128	17
142	20
155	43
169	40
170	173
171	30
209	23
