Mass spectrum: 3-OCTYL 2-METHYLBUTYRATE; EI-MS
Formula: C13H26O2
Exact mass: 214.19328
Instrument type: EI-MS
m/z	relative intensity
27	103
29	266
31	11
39	64
41	329
42	59
43	196
44	12
53	13
54	12
55	152
56	134
57	999
58	52
59	26
69	63
70	116
71	251
72	14
74	41
82	13
83	85
84	48
85	864
86	53
87	16
99	12
102	23
103	126
112	147
113	24
143	46
185	13
