Mass spectrum: ETHYL LACTATE; EI-MS
Formula: C5H10O3
Exact mass: 118.06299
Instrument type: EI-MS
m/z	relative intensity
27	22
28	11
29	90
31	1
43	18
45	999
46	29
47	1
56	11
75	51
103	7
