Mass spectrum: (3AR*,7AS*,8AS*)-2-METHYL-1,2,3,3A,5,6,7,7A,8,8A-DECAHYDROCYCLOPENT(F)ISOINDOLE-1,3,5-TRIONE; EI-MS
Formula: C12H13NO3
Exact mass: 219.08954
Instrument type: EI-MS
m/z	relative intensity
37	30
38	254
39	35
40	62
41	34
50	109
51	306
52	202
53	76
55	65
56	78
57	37
58	63
62	23
63	105
64	27
65	145
66	44
74	27
75	35
76	58
77	467
78	830
79	186
89	30
91	593
92	999
93	81
103	85
104	47
105	349
106	149
107	23
116	42
133	167
134	290
135	34
219	146
220	24
