Mass spectrum: TRANS-1-(DIETHYL(2-PHENYLETHENYL)SILYL-2-(DIETHYL)BENZENE; EI-MS
Formula: C22H32Si2
Exact mass: 352.20425
Instrument type: EI-MS
m/z	relative intensity
51	53
52	15
53	39
55	53
56	21
57	95
58	21
59	242
60	11
77	32
78	53
87	21
91	32
103	21
104	32
105	84
106	11
107	105
131	42
133	32
135	63
149	32
159	32
163	32
177	32
205	63
207	32
219	11
225	32
235	53
237	42
239	32
245	21
253	63
254	11
265	21
267	53
281	95
282	11
293	42
295	179
296	42
297	11
321	137
322	63
323	999
324	316
325	116
326	11
352	53
353	21
