Mass spectrum: DIBUTYLIODOMETHYLSILANE; EI-MS
Formula: C9H21ISi
Exact mass: 284.04572
Instrument type: EI-MS
m/z	relative intensity
53	21
55	95
56	11
57	42
59	999
60	84
61	32
71	53
73	421
74	32
99	21
101	326
102	32
157	400
158	53
170	11
171	84
185	19
227	13
