Mass spectrum: SULFOLANE; EI-MS
Name: TETRAHYDROTHIOPHENE 1,1-DIOXIDE
Formula: C4H8O2S
Exact mass: 120.0245
Instrument type: EI-MS
m/z	relative intensity
26	55
27	181
28	468
29	13
39	161
40	47
41	999
42	4
43	36
48	35
53	32
55	87
56	906
57	54
120	542
121	3
122	25
