Mass spectrum: (+-)-1-BENZOCYCLOBUTENECARBOXYLIC ACID; EI-MS
Formula: C9H8O2
Exact mass: 148.05243
Instrument type: EI-MS
m/z	relative intensity
40	38
43	30
44	23
55	1
56	12
57	30
65	27
69	3
70	23
71	39
77	194
78	5
80	14
85	16
90	8
91	35
92	68
93	5
97	10
101	1
102	146
103	311
104	114
105	16
106	14
113	32
115	12
118	1
119	401
120	202
121	23
129	1
130	72
131	128
132	21
133	1
146	8
147	377
148	999
149	13
150	45
