Mass spectrum: ISOPENTANE; EI-MS
Formula: C5H12
Exact mass: 72.0939
Instrument type: EI-MS
m/z	relative intensity
27	47
28	10
29	208
41	42
42	990
43	999
44	37
55	4
56	223
57	651
58	31
71	3
72	89
