Mass spectrum: BIS(1,1,2,3,3-PENTAMETHYLINDAN-5-YL)-METHANE; EI-MS
Name: BIS(2,3-DIHYDRO-1,1,2,3,3-PENTAMETHYL-1H-INDEN-6-YL)-METHANE
Formula: C29H40
Exact mass: 388.313
Instrument type: EI-MS
m/z	relative intensity
57	20
143	103
156	36
157	6
159	47
171	122
179	106
185	3
186	56
201	207
202	33
373	999
374	316
375	42
388	289
389	85
