Mass spectrum: (E,E)-(1'R,2'S,5'R)-8'-PHENYLMENTHYL 2,4-HEXADIENOATE; EI-MS
Formula: C22H30O2
Exact mass: 326.22458
Instrument type: EI-MS
m/z	relative intensity
143	38
157	13
185	34
199	135
200	17
207	509
208	75
214	999
215	185
217	29
229	45
230	519
231	168
232	19
314	20
326	601
327	139
