Mass spectrum: 4-ETHOXYPHENOL; EI-MS
Formula: C8H10O2
Exact mass: 138.06808
Instrument type: EI-MS
m/z	relative intensity
430	10
440	22
500	12
510	19
520	20
530	65
540	44
550	55
630	21
640	16
650	37
810	129
820	66
1080	13
1090	151
1100	999
1110	70
1380	455
1390	42
