Mass spectrum: 4,4-HEXAMETHYLENE-2-PARA-TOLYLPERHYDROPYRROLO(3,4-C)PYRROLE-1,3-DIONE; EI-MS
Formula: C18H22N2O2
Exact mass: 298.16813
Instrument type: EI-MS
m/z	relative intensity
39	47
41	108
43	87
55	58
56	45
67	57
68	46
77	43
80	202
81	89
82	69
83	51
91	51
94	248
110	49
111	47
242	198
255	999
256	213
269	59
298	383
299	70
