Mass spectrum: 2,3,4,5,6-PENTAFLUOROPHENYLACETIC ACID; EI-MS
Formula: C8H3F5O2
Exact mass: 226.00532
Instrument type: EI-MS
m/z	relative intensity
44	7
45	162
51	11
69	12
75	8
81	11
93	8
99	5
101	4
112	19
113	6
131	25
132	75
133	5
137	6
143	31
150	13
155	16
159	6
161	68
162	153
163	91
164	7
178	68
179	9
180	13
181	999
182	135
183	7
195	4
198	35
206	19
226	573
227	50
228	4
