Mass spectrum: 1-CHLORO-1,2,2-TRIMETHYL-1,2-DIPHENYLDISILANE; EI-MS
Formula: C15H19ClSi2
Exact mass: 290.07138
Instrument type: EI-MS
m/z	relative intensity
105	25
107	20
120	44
134	12
135	999
136	141
137	43
155	10
197	462
198	86
199	22
290	31
291	10
292	15
