Mass spectrum: 4-CHLOROANILINE; EI-MS
Formula: C6H6ClN
Exact mass: 127.01888
Instrument type: EI-MS
m/z	relative intensity
42	48
43	12
46	92
47	17
50	23
51	19
52	28
55	12
57	16
61	34
62	45
63	105
64	60
65	231
66	28
67	17
71	18
73	37
74	14
75	23
78	60
83	13
90	14
91	50
92	166
93	13
99	68
100	85
101	25
102	27
126	18
127	999
128	77
129	331
130	22
