Mass spectrum: 3,4-BIS(METHOXYCARBONYL)-2-TRIMETHYLSILYL-5-PHENYLPYRROLE; EI-MS
Formula: C17H21NO4Si
Exact mass: 331.12398
Instrument type: EI-MS
m/z	relative intensity
59	203
73	65
75	71
77	54
89	129
104	83
113	109
128	67
129	56
143	114
254	466
255	423
256	91
270	80
271	75
284	573
285	528
300	159
301	138
316	999
317	933
318	233
319	65
331	292
332	264
