Mass spectrum: 5,9,13,17-TETRAMETHYL 4,8,12,16-OCTADECATETRAENOIC ACID; EI-MS
Formula: C22H36O2
Exact mass: 332.27153
Instrument type: EI-MS
m/z	relative intensity
27	24
28	61
29	37
39	43
41	281
43	77
44	14
53	48
55	125
57	43
67	118
68	124
69	999
70	62
71	27
73	24
77	29
79	53
80	27
81	601
82	82
83	43
85	68
91	33
92	20
93	171
94	35
95	169
96	18
97	29
105	34
107	111
108	33
109	109
110	16
111	16
113	13
119	34
121	122
122	43
123	100
124	20
125	13
127	21
133	38
134	20
135	167
136	152
137	131
138	17
147	27
149	43
153	43
161	37
163	13
177	24
179	17
181	15
189	12
193	19
195	15
204	20
206	15
207	33
208	13
221	13
263	35
281	5
289	11
332	22
333	6
