Mass spectrum: 2-(3-((Z)-3-TRIBUTYLSTANNYL-1-PROPENOXY)-(2R,3S,5AR,6AR,10AR,12AS)-TETRAHYDROPYRANO(3,2-B)OXEPANO(2',3':6,7)OXEPAN-2-YL)ETHANOL; EI-MS
Formula: C30H56O5Sn
Exact mass: 616.31497
Instrument type: EI-MS
m/z	relative intensity
55	63
57	31
67	48
71	178
79	32
81	44
83	36
97	524
98	89
110	36
111	61
121	38
140	64
141	70
167	45
173	41
175	196
176	105
177	304
178	102
179	342
181	62
183	62
211	36
231	202
232	137
233	339
234	159
235	424
236	38
237	60
239	75
251	71
252	33
267	51
269	169
283	32
287	441
288	293
289	770
290	370
291	999
292	139
293	154
295	182
371	61
372	40
373	91
374	46
375	109
417	47
419	73
420	31
421	73
445	48
447	47
455	33
469	62
470	43
471	107
472	62
473	143
474	39
475	42
485	34
499	332
500	257
501	584
502	331
503	780
504	198
505	134
506	35
507	135
508	37
542	32
555	217
556	236
557	443
558	336
559	580
560	302
561	138
562	49
563	96
564	50
612	156
613	150
614	316
615	20
616	421
617	141
618	8
620	69
