Mass spectrum: T-MUUROLOL; EI-MS
Formula: C15H26O
Exact mass: 222.19837
Instrument type: EI-MS
m/z	relative intensity
41	300
42	30
43	800
44	3
53	200
54	15
55	230
56	3
57	65
58	210
59	50
65	5
67	150
68	40
69	280
70	5
71	380
77	160
78	40
79	31
80	110
82	350
83	120
91	21
92	130
93	290
94	370
95	999
96	160
97	50
105	370
106	8
107	140
108	190
109	370
110	7
111	40
119	250
120	80
121	77
122	150
123	120
127	120
133	9
134	100
135	110
136	50
137	13
138	50
145	50
147	80
148	8
149	110
150	60
151	110
152	13
161	720
162	140
164	520
165	9
179	140
189	140
204	820
205	18
207	80
222	315
223	70
