Mass spectrum: 1,2-DI(N-HEXYL)-1,2-DIMETHYLDIPHENYLDISILANE; EI-MS
Formula: C26H42Si2
Exact mass: 410.2825
Instrument type: EI-MS
m/z	relative intensity
55	11
59	11
105	158
106	11
107	21
119	32
120	42
121	999
122	179
123	53
135	63
183	21
197	32
205	232
206	32
241	21
410	105
411	32
