Mass spectrum: ETHYL PIVALATE; EI-MS
Formula: C7H14O2
Exact mass: 130.09938
Instrument type: EI-MS
m/z	relative intensity
15	13
27	87
29	225
39	87
41	292
42	32
43	21
45	16
55	20
56	185
57	999
58	50
59	80
75	51
85	83
87	74
130	54
