Mass spectrum: 3-NITROANILINE; EI-MS
Formula: C6H6N2O2
Exact mass: 138.04293
Instrument type: EI-MS
m/z	relative intensity
42	68
43	22
44	16
50	26
51	30
52	87
53	42
54	22
61	19
62	39
63	99
64	85
65	912
66	114
74	12
75	10
78	14
79	14
80	103
81	10
90	15
91	49
92	999
93	79
108	79
122	20
138	885
139	70
