Mass spectrum: CHLORODIMETHYL(PHENYLETHYNYL)SILANE; EI-MS
Formula: C10H11ClSi
Exact mass: 194.03185
Instrument type: EI-MS
m/z	relative intensity
51	63
52	116
54	168
63	999
64	74
65	389
66	37
67	37
74	32
75	32
76	21
77	95
78	21
79	21
88	11
89	105
90	116
91	58
101	11
103	53
105	11
115	132
116	11
117	11
129	116
159	63
179	526
180	63
181	200
182	21
194	126
195	21
196	42
