Mass spectrum: METHACRYLIC ACID 1,10-DECANDIOL MONOESTER; EI-MS
Formula: C14H26O3
Exact mass: 242.18819
Instrument type: EI-MS
m/z	relative intensity
27	30
28	20
29	60
31	6
39	80
41	530
42	70
43	15
53	20
54	210
55	340
56	13
57	150
66	40
67	420
68	48
69	999
70	210
71	110
74	2
79	20
80	20
81	440
82	52
83	350
84	70
85	60
86	5
87	660
88	100
89	20
94	2
95	350
96	310
97	210
98	6
99	60
109	170
110	180
111	5
112	40
113	50
114	20
123	3
124	20
125	20
126	30
127	4
137	40
138	60
139	30
155	2
212	20
224	6
242	4
243	5
