Mass spectrum: 4-ETHOXYCARBONYLMETHYL-3-METHYL-1-PARA-TOLYL-3-PYRROLINE-2,5-DIONE; EI-MS
Formula: C16H17NO4
Exact mass: 287.11576
Instrument type: EI-MS
m/z	relative intensity
38	147
39	158
51	55
52	39
53	119
65	36
67	39
68	124
77	66
78	47
81	95
90	40
91	83
104	56
117	115
130	34
131	37
132	105
133	63
144	68
157	103
158	65
172	44
186	40
200	53
201	999
202	137
213	115
214	78
215	74
242	53
287	371
288	68
