Mass spectrum: 3,4-METHYLENEDIOXYBENZENEACETONITRIL; EI-MS
Formula: C9H7NO2
Exact mass: 161.04768
Instrument type: EI-MS
m/z	relative intensity
76	32
77	24
78	10
102	12
103	194
104	35
105	24
130	12
131	114
132	20
135	19
160	606
161	999
162	103
163	9
