Mass spectrum: 1,1,1,2-TETRAMETHYLDISILANE (2,2-D); EI-MS
Formula: C4H14Si2
Exact mass: 118.0634
Instrument type: EI-MS
m/z	relative intensity
43	56
44	16
45	60
58	14
59	18
60	43
72	28
73	999
74	106
75	43
88	10
101	26
102	15
103	30
104	15
105	118
106	21
107	14
116	28
118	23
120	113
121	23
122	13
