Mass spectrum: BENZHYDROL; EI-MS
Formula: C13H12O
Exact mass: 184.08882
Instrument type: EI-MS
m/z	relative intensity
18	11
26	10
27	56
29	34
38	20
39	83
50	113
51	292
52	60
53	26
62	20
63	11
74	38
75	30
76	34
77	552
78	405
79	357
80	23
87	10
89	15
105	999
106	112
107	146
108	11
115	24
128	14
139	14
152	31
153	15
155	28
165	87
166	38
167	56
168	14
183	161
184	505
185	70
