Mass spectrum: N-BENZOYL-PARA-ANISIDINE; EI-MS
Name: 4-METHOXY-N-BENZOYLANILINE
Formula: C14H13NO2
Exact mass: 227.09463
Instrument type: EI-MS
m/z	relative intensity
15	17
27	13
39	19
41	25
50	34
51	109
52	52
53	30
63	16
64	13
65	14
76	16
77	355
78	37
79	14
80	16
95	35
105	999
106	82
107	11
122	14
124	24
227	538
228	91
