Mass spectrum: 2-HYDROXYMETHYL-3-(METHYLTHIO)INDOLE; EI-MS
Formula: C10H11NOS
Exact mass: 193.05613
Instrument type: EI-MS
m/z	relative intensity
15	57
28	81
31	58
32	16
39	61
41	26
43	14
45	99
46	17
47	19
50	33
51	53
52	21
63	57
64	15
65	21
74	21
75	34
76	38
77	90
78	22
88	15
89	109
90	80
91	47
93	23
94	23
101	17
102	31
103	16
104	26
115	15
116	101
117	689
118	116
119	17
120	68
121	61
128	27
129	17
130	48
131	46
132	52
133	31
134	37
142	21
143	15
144	34
145	15
146	42
148	79
149	57
150	58
158	15
160	201
161	42
162	32
174	33
175	246
176	100
177	47
178	393
179	43
180	18
192	24
193	999
194	123
195	50
