Mass spectrum: 2-METHYL-4-(TRIMETHYLSILYL)METHYL-5-HEXEN-3-ONE; EI-MS
Formula: C11H22OSi
Exact mass: 198.14399
Instrument type: EI-MS
m/z	relative intensity
39	37
41	86
43	289
44	36
45	145
55	24
58	29
59	63
67	21
71	148
72	25
73	999
74	121
75	243
97	39
127	98
129	204
130	26
144	27
155	261
156	43
183	117
184	20
198	26
