Mass spectrum: TERT-BUTYLIODODIMETHYLSILANE; EI-MS
Formula: C6H15ISi
Exact mass: 241.99877
Instrument type: EI-MS
m/z	relative intensity
53	63
54	21
55	121
56	363
57	589
58	295
59	495
60	32
73	999
74	84
75	58
115	126
116	11
154	6
155	8
157	12
185	123
186	13
242	13
