Mass spectrum: DIMETHYL MALEATE; EI-MS
Formula: C6H8O4
Exact mass: 144.04226
Instrument type: EI-MS
m/z	relative intensity
15	178
25	12
26	95
27	3
28	18
29	43
30	12
31	2
39	18
41	18
53	43
54	7
55	31
59	218
82	25
85	8
113	999
114	80
144	22
