Mass spectrum: 3-HYDROXY-5-METHOXY-2-PHENYL-4H-1-BENZOPYRAN-4-ONE; EI-MS
Name: 5-METHOXYFLAVONOL
Formula: C16H12O4
Exact mass: 268.07356
Instrument type: EI-MS
m/z	relative intensity
77	41
89	14
90	12
105	140
107	17
118	17
121	22
122	11
129	17
141	22
151	18
152	19
153	18
165	170
166	40
168	10
181	77
182	12
193	23
194	50
197	19
210	20
221	48
222	561
223	94
224	14
225	40
237	192
238	49
239	139
240	25
249	301
250	110
251	34
252	24
265	12
267	207
268	999
269	196
270	24
