Mass spectrum: THIRAM; EI-MS
Name: TETRAMETHYLTHIURAM DISULFIDE
Formula: C6H12N2S4
Exact mass: 239.98833
Instrument type: EI-MS
m/z	relative intensity
15	21
43	23
44	154
45	13
72	22
73	68
88	999
89	49
90	49
120	239
121	65
122	26
152	4
240	61
242	12
