Mass spectrum: 1,1-DIMETHYL-2,2-DIPROPYLDISILANE (1,2-D2); EI-MS
Formula: C8H22Si2
Exact mass: 174.126
Instrument type: EI-MS
m/z	relative intensity
43	187
44	131
45	224
46	176
47	65
58	150
59	206
60	271
70	84
71	168
72	196
73	280
74	280
75	93
85	112
86	477
87	206
88	224
89	121
90	159
91	196
99	65
101	75
103	75
104	84
105	84
114	757
115	318
116	271
117	103
118	93
119	103
129	84
131	75
132	75
133	84
134	84
149	65
159	65
161	93
176	999
177	234
178	121
