Mass spectrum: PHENYLSILANE; EI-MS
Formula: C6H8Si
Exact mass: 108.03953
Instrument type: EI-MS
m/z	relative intensity
51	56
52	338
53	366
54	324
55	28
63	42
64	42
74	42
75	14
76	49
77	268
78	999
79	63
105	17
106	23
107	24
108	24
