Mass spectrum: 2-(1-HYDROXY-2-OXO-2-PHENETHYL)TROPONE; EI-MS
Formula: C15H12O3
Exact mass: 240.07864
Instrument type: EI-MS
m/z	relative intensity
39	116
41	47
43	38
50	116
51	323
52	60
53	44
55	30
57	29
63	59
65	34
76	40
77	833
78	123
79	161
89	38
94	32
105	999
106	105
107	40
108	11
135	142
136	15
165	19
222	14
240	16
