Mass spectrum: 4-AMINO-1-BUTANOL; EI-MS
Formula: C4H11NO
Exact mass: 89.08406
Instrument type: EI-MS
m/z	relative intensity
17	13
18	67
26	13
27	55
28	106
29	61
30	999
31	96
39	32
40	13
41	50
42	45
43	57
44	33
45	94
56	17
59	10
