Mass spectrum: 4,7-DI(4-BUTOXYPHENYL)-6-(2-METHOXYPHENYL)-1,2,5-THIADIAZOLO(3,4-C)PYRIDINE; EI-MS
Formula: C32H33N3O3S
Exact mass: 539.22426
Instrument type: EI-MS
m/z	relative intensity
30	194
39	56
41	265
43	106
44	90
45	66
55	106
57	163
69	71
77	54
91	83
95	54
119	61
169	110
170	71
319	61
333	89
334	50
389	149
425	130
481	160
482	110
537	60
538	999
539	385
540	119
