Mass spectrum: 2-AMINO-2-THIAZOLINE; EI-MS
Formula: C3H6N2S
Exact mass: 102.02517
Instrument type: EI-MS
m/z	relative intensity
15	12
18	20
26	18
27	54
28	126
29	13
30	10
32	18
33	11
40	19
41	21
42	56
43	189
45	171
46	42
47	28
55	118
56	382
57	18
58	65
59	268
60	498
61	32
62	21
74	41
75	11
100	13
101	447
102	999
103	88
104	47
