Mass spectrum: 1,2-BENZANTHRACENE; EI-MS
Name: TETRAPHENE
Formula: C18H12
Exact mass: 228.0939
Instrument type: EI-MS
m/z	relative intensity
87	10
88	11
100	23
101	32
112	23
113	54
114	74
115	14
200	26
201	12
202	24
224	42
225	31
226	188
227	55
228	999
229	197
230	21
