Mass spectrum: METHYL LEVULINATE; EI-MS
Name: BETA-ACETYLPROPIONIC ACID METHYL ESTER
Formula: C6H10O3
Exact mass: 130.06299
Instrument type: EI-MS
m/z	relative intensity
15	130
26	21
27	88
28	7
29	27
31	15
39	21
41	2
42	59
43	999
44	27
45	2
55	171
56	44
57	124
59	12
71	65
75	12
87	62
88	12
89	12
98	62
99	289
100	2
115	198
116	12
130	80
