Mass spectrum: (ALPHA,ALPHA,ALPHA-TRIFLUORO-ORTHO-TOLYL)ACETIC ACID; EI-MS
Formula: C9H7F3O2
Exact mass: 204.03981
Instrument type: EI-MS
m/z	relative intensity
41	38
42	27
43	139
44	4
45	41
55	51
56	63
57	9
58	73
60	66
69	47
70	4
71	63
73	25
81	21
83	4
84	25
85	41
91	570
92	6
95	22
97	22
109	190
110	3
119	44
136	32
137	70
139	3
140	680
141	73
157	19
159	999
160	214
161	14
204	649
205	76
