Mass spectrum: ISOPENTYL LAURATE; EI-MS
Formula: C17H34O2
Exact mass: 270.25588
Instrument type: EI-MS
m/z	relative intensity
42	13
43	74
55	36
57	3
60	13
61	13
69	13
70	999
71	264
72	13
73	17
115	2
129	13
130	21
131	13
143	2
183	53
200	28
201	42
270	21
