Mass spectrum: ACROLEIN; EI-MS
Formula: C3H4O
Exact mass: 56.02621
Instrument type: EI-MS
m/z	relative intensity
13	13
14	13
24	12
25	74
26	623
27	999
28	361
29	422
30	11
36	10
37	43
38	49
39	62
53	32
55	316
56	387
57	43
