Mass spectrum: ETHYL 4,7-DI(PARA-ETHOXYPHENYL)-1,2,5-THIADIAZOLO(3,4-C)PYRIDINE-6-CARBOXYLATE; EI-MS
Formula: C24H23N3O4S
Exact mass: 449.14093
Instrument type: EI-MS
m/z	relative intensity
38	114
40	227
42	213
43	196
44	96
54	100
56	141
65	104
69	97
91	84
119	105
121	123
137	123
157	87
290	99
291	114
292	111
319	111
320	302
321	128
347	102
348	175
349	144
376	101
377	562
378	111
449	999
450	345
451	82
