Mass spectrum: DIMETHYLBENZYLSILANE (1-D); EI-MS
Formula: C9H14Si
Exact mass: 150.08648
Instrument type: EI-MS
m/z	relative intensity
43	68
45	27
58	98
59	257
60	999
61	82
62	33
72	115
73	16
91	48
92	11
107	22
108	31
121	25
122	11
134	14
135	23
136	314
137	48
138	16
149	25
150	103
151	383
152	66
153	19
