Mass spectrum: PHENYLISOCYANATE-CYCLICDIMER; EI-MS
Formula: C14H10N2O2
Exact mass: 238.07423
Instrument type: EI-MS
m/z	relative intensity
37	29
38	90
39	130
40	67
41	68
44	23
50	47
51	102
52	62
61	11
62	28
63	191
64	457
65	109
66	11
76	13
77	39
90	71
91	713
92	72
93	10
119	999
120	265
121	17
238	285
239	58
