Mass spectrum: (1S)-(-)-CAMPHOR; EI-MS
Formula: C10H16O
Exact mass: 152.12012
Instrument type: EI-MS
m/z	relative intensity
18	28
30	26
55	10
68	18
69	22
79	13
80	152
81	282
82	29
83	26
86	18
87	15
93	38
94	12
95	212
96	27
97	21
100	11
108	689
109	165
110	162
111	23
123	12
124	20
136	11
137	38
138	34
144	43
150	10
152	999
153	125
154	13
