Mass spectrum: 5-ALPHA-ANDROST-16-EN-3-ONE; EI-MS
Formula: C19H28O
Exact mass: 272.21402
Instrument type: EI-MS
m/z	relative intensity
43	16
55	42
57	11
67	54
68	15
69	33
77	12
79	192
80	56
81	145
82	16
83	29
91	88
92	24
93	233
94	642
95	366
96	35
97	32
105	95
106	53
107	384
108	112
109	84
110	23
111	29
117	20
118	13
119	81
120	34
121	81
122	64
123	97
124	248
125	31
129	11
131	54
132	17
133	140
134	43
135	160
136	35
137	67
138	11
143	28
144	30
145	90
146	57
147	442
148	226
149	473
150	61
157	24
158	17
159	58
160	24
161	131
162	43
163	86
164	18
171	18
172	12
173	30
174	12
175	42
176	21
177	25
178	14
179	13
183	18
185	18
187	58
188	14
189	24
197	16
199	61
200	39
201	52
202	30
203	17
204	11
213	12
214	17
215	56
216	19
217	43
229	11
230	17
239	91
240	17
243	11
254	10
257	999
258	195
259	22
271	16
272	938
273	192
274	25
