Mass spectrum: 2-(2-NITROBENZYLOXY)TROPONE; EI-MS
Formula: C14H11NO4
Exact mass: 257.06881
Instrument type: EI-MS
m/z	relative intensity
38	49
39	354
43	56
50	65
51	214
52	83
63	193
64	98
65	440
66	62
75	70
76	198
77	908
78	99
89	142
90	53
91	78
92	57
94	130
105	177
122	263
123	47
132	40
135	78
136	999
137	79
181	43
196	111
240	363
241	63
257	206
258	42
