Mass spectrum: METHYL 2-ISOPROPYL-3-METHYL-5-PHENYL-1-PYRROLINE-4-CARBOXYLATE (3,4-TRANS-4,5-CIS); EI-MS
Name: METHYL (4R,5S)-2-ISOPROPYL-3-METHYL-5-PHENYL-1-PYRROLINE-4-CARBOXYLATE
Formula: C16H21NO2
Exact mass: 259.15723
Instrument type: EI-MS
m/z	relative intensity
41	93
89	124
90	214
91	210
115	103
117	696
118	122
119	123
129	86
130	86
131	279
144	257
147	213
158	165
159	999
160	129
200	233
206	221
257	122
259	583
260	131
