Mass spectrum: 3,7,11,15-TETRAMETHYLHEXADECANE-1,2,3-TRIOL TRIACETATE; EI-MS
Formula: C26H48O6
Exact mass: 456.34509
Instrument type: EI-MS
m/z	relative intensity
27	21
28	14
29	73
39	14
41	227
42	38
43	999
44	28
55	319
56	133
57	615
58	36
67	49
68	55
69	367
70	138
71	493
72	40
73	13
79	19
80	32
81	157
82	66
83	305
84	134
85	270
86	81
87	709
88	77
93	465
94	33
95	159
96	48
97	282
98	93
99	101
101	22
103	15
107	17
109	128
110	40
111	272
112	47
113	69
121	50
122	12
123	88
124	22
125	124
126	58
127	67
129	40
130	154
131	13
135	21
137	60
138	19
139	70
140	41
141	41
149	21
151	27
153	33
155	24
163	14
165	13
167	14
169	15
263	25
269	103
281	84
282	46
294	21
312	13
