Mass spectrum: NAPHTHALENE; EI-MS
Formula: C10H8
Exact mass: 128.0626
Instrument type: EI-MS
m/z	relative intensity
40	243
41	65
43	69
44	87
51	137
55	99
57	53
63	82
64	135
75	50
77	68
78	74
83	56
102	76
126	81
127	150
128	999
129	135
