Mass spectrum: 2,2-DIMETHYLCYCLOPENTANONE; EI-MS
Formula: C7H12O
Exact mass: 112.08882
Instrument type: EI-MS
m/z	relative intensity
28	46
41	148
42	61
43	38
55	88
56	999
57	78
68	96
69	127
70	55
79	85
83	36
84	54
94	116
97	97
112	356
113	42
