Mass spectrum: 3-DIMETHYLAMINOBENZOIC ACID; EI-MS
Formula: C9H11NO2
Exact mass: 165.07898
Instrument type: EI-MS
m/z	relative intensity
15	21
27	10
38	11
39	36
42	59
44	17
45	36
50	38
51	43
52	15
63	42
64	15
65	58
66	12
73	28
74	28
75	25
76	30
77	81
78	37
79	24
83	21
90	14
91	28
92	15
93	11
103	11
104	53
105	36
117	11
118	51
119	20
120	33
121	25
132	11
148	69
149	50
150	17
164	999
165	792
166	92
