Mass spectrum: ISOPENTYL PARA-HYDROXYBENZOATE; EI-MS
Name: 3-METHYLBUTYL 4-HYDROXYBENZOATE
Formula: C12H16O3
Exact mass: 208.10994
Instrument type: EI-MS
m/z	relative intensity
27	36
29	32
39	70
41	72
42	19
43	67
53	12
55	61
63	26
64	19
65	126
66	11
69	10
70	179
71	15
92	36
93	157
94	17
95	31
120	15
121	999
122	89
123	11
138	612
139	372
140	32
151	15
152	13
208	17
