Mass spectrum: 2-BUTYLCYCLOPENANONE; EI-MS
Formula: C9H16O
Exact mass: 140.12012
Instrument type: EI-MS
m/z	relative intensity
26	11
27	154
28	26
29	112
39	142
40	14
41	290
42	118
43	92
51	11
53	44
54	57
55	231
56	145
57	15
67	37
68	13
69	81
70	31
79	11
81	16
83	188
84	999
85	61
97	120
98	33
111	16
140	71
