Mass spectrum: META-IODOBENZOIC ACID; EI-MS
Name: 3-IODOBENZOIC ACID
Formula: C7H5IO2
Exact mass: 247.93342
Instrument type: EI-MS
m/z	relative intensity
27	14
37	30
38	35
39	106
45	62
49	23
50	234
51	95
53	23
63	18
64	14
65	469
66	29
73	24
74	106
75	117
76	223
77	35
78	11
92	16
93	32
103	24
104	20
121	221
122	21
127	75
128	12
203	50
231	127
248	999
249	86
