Mass spectrum: 2-METHYLBUTYL SALICYLATE; EI-MS
Formula: C12H16O3
Exact mass: 208.10994
Instrument type: EI-MS
m/z	relative intensity
27	106
29	155
38	16
39	200
41	154
42	41
43	361
53	32
55	125
57	18
63	43
64	60
65	215
66	16
70	161
71	78
92	196
93	89
120	999
121	373
122	25
138	389
139	42
208	95
209	11
