Mass spectrum: 2-(4-NITROBENZYLOXY)TROPONE; EI-MS
Formula: C14H11NO4
Exact mass: 257.06881
Instrument type: EI-MS
m/z	relative intensity
38	71
39	609
40	43
50	78
51	201
52	72
62	57
63	226
64	124
65	588
66	54
76	29
77	192
78	740
79	59
89	310
90	279
91	47
93	57
94	50
105	409
106	999
107	94
136	242
257	255
258	47
