Mass spectrum: 1,1,2,3,3-PENTAMETHYL-1,3-DISILACYCLOPENTANE; EI-MS
Formula: C8H20Si2
Exact mass: 172.11035
Instrument type: EI-MS
m/z	relative intensity
58	26
59	84
71	20
72	11
73	134
83	22
85	127
86	46
87	21
97	409
98	53
99	28
115	85
116	134
117	56
118	22
129	834
130	142
131	76
143	52
144	334
145	79
146	37
157	999
158	189
159	93
160	22
172	916
173	178
174	85
