Mass spectrum: 4-(2,6-DIFLUOROBENZOYL)-3-PHENYL-5-ISOXAZOLONE; EI-MS
Formula: C16H9F2NO3
Exact mass: 301.05505
Instrument type: EI-MS
m/z	relative intensity
39	10
50	11
51	22
62	9
63	55
75	7
76	19
77	23
89	22
102	60
103	23
112	7
113	100
116	26
141	999
142	226
158	8
301	9
