Mass spectrum: 5-DEUTERIO-6-HYDRO-7-(HYDROXYDIMETHYLSILYL)-3-(PENTAMETHYLDISILANYL)-6-(TRIMETHYLSILYL)NAPHTHALENE; EI-MS
Formula: C20H38OSi4
Exact mass: 406.19997
Instrument type: EI-MS
m/z	relative intensity
43	74
45	274
47	63
59	74
60	11
73	999
74	84
75	421
117	42
131	168
132	32
133	147
134	32
147	116
148	11
170	11
184	11
185	32
186	147
187	32
205	53
244	32
245	11
246	32
259	32
260	42
261	11
333	11
335	211
336	74
393	32
