Mass spectrum: META-BROMONITROBENZENE; EI-MS
Name: 3-BROMONITROBENZENE
Formula: C6H4BrNO2
Exact mass: 200.94254
Instrument type: EI-MS
m/z	relative intensity
26	18
27	13
30	621
37	59
38	90
39	55
40	11
46	64
49	37
50	600
51	95
61	23
62	31
63	113
64	76
65	10
69	37
73	42
74	261
75	836
76	861
77	71
79	13
81	13
90	25
92	87
117	17
119	16
129	20
131	19
143	247
144	14
145	238
146	14
155	673
156	57
157	650
158	53
169	10
171	105
172	12
173	93
185	137
186	13
188	13
201	999
202	96
203	987
204	92
