Mass spectrum: PHTHALIDE; EI-MS
Formula: C8H6O2
Exact mass: 134.03678
Instrument type: EI-MS
m/z	relative intensity
440	12
490	11
500	96
510	121
520	30
610	11
620	19
630	32
660	32
740	35
750	30
760	97
770	407
780	37
890	16
1040	29
1050	999
1060	80
1330	151
1340	443
1350	40
