Mass spectrum: ETHYL 4-HYDROXYBEZOATE; EI-MS
Formula: C9H10O3
Exact mass: 166.06299
Instrument type: EI-MS
m/z	relative intensity
15	14
26	18
27	79
29	60
38	30
39	170
50	19
51	15
53	31
62	18
63	70
64	34
65	216
66	18
75	11
81	12
92	26
93	153
94	14
121	999
122	104
138	180
139	11
166	185
167	14
