Mass spectrum: 3-METHYLURACIL; EI-MS
Formula: C5H6N2O2
Exact mass: 126.04293
Instrument type: EI-MS
m/z	relative intensity
38	16
39	40
40	286
41	282
42	334
43	79
44	44
52	10
53	33
54	21
55	74
56	86
57	36
58	47
67	17
68	134
69	749
70	129
71	18
81	31
82	32
83	19
84	18
96	57
97	73
98	50
126	999
127	73
