Mass spectrum: 1,1-DIMETHYLSILACYCLOHEXANE; EI-MS
Formula: C7H16Si
Exact mass: 128.10213
Instrument type: EI-MS
m/z	relative intensity
27	24
28	70
29	46
31	52
32	19
39	24
41	26
42	25
43	229
44	47
45	94
46	8
53	18
54	6
55	39
56	8
57	32
58	70
59	443
60	33
61	16
66	7
67	14
69	17
70	10
71	60
72	155
73	30
74	7
83	15
84	22
85	854
86	100
87	35
97	13
99	24
100	44
111	16
113	999
114	116
115	41
128	335
129	41
130	10
