Mass spectrum: 2,4,5-TRIACETOXYTROPONE; EI-MS
Formula: C13H12O7
Exact mass: 280.0583
Instrument type: EI-MS
m/z	relative intensity
39	12
40	26
42	15
43	64
45	34
50	14
51	30
52	39
53	42
54	43
55	55
63	13
69	30
79	11
80	19
82	16
97	46
108	23
125	68
126	999
127	65
137	11
154	36
155	12
196	420
197	370
198	40
238	234
239	423
240	52
281	177
282	26
