Mass spectrum: N-(3,7-DIMETHYL-2,6-OCTADIENYL)-CAPROLACTAM; EI-MS
Formula: C16H27NO
Exact mass: 249.20926
Instrument type: EI-MS
m/z	relative intensity
27	40
29	40
30	30
39	5
40	10
41	370
42	70
43	5
44	40
53	60
54	20
55	22
56	40
57	20
65	10
66	1
67	100
68	70
69	360
70	4
71	20
77	20
79	40
80	5
81	90
82	40
83	30
84	8
85	70
91	40
92	20
93	10
94	30
95	40
96	270
97	3
98	200
99	30
105	10
107	3
108	20
109	10
110	10
112	3
113	10
114	210
115	20
119	1
121	100
122	20
124	10
126	37
127	60
128	10
135	10
136	9
137	10
138	210
139	20
140	1
143	20
150	10
152	50
164	1
166	70
167	30
178	20
179	3
180	999
181	140
182	10
192	3
206	30
207	10
234	10
249	17
250	30
