Mass spectrum: 2,5-DIACETOXYTROPONE; EI-MS
Formula: C11H10O5
Exact mass: 222.05282
Instrument type: EI-MS
m/z	relative intensity
38	18
39	27
42	28
43	934
44	21
45	17
51	16
52	21
53	32
54	69
55	28
60	12
62	11
63	30
64	14
65	17
81	34
82	30
109	11
110	373
111	22
138	999
139	82
180	187
181	31
222	60
223	17
