Mass spectrum: 1-NAPHTHYL METHYLCARBAMATE; EI-MS
Formula: C12H11NO2
Exact mass: 201.07898
Instrument type: EI-MS
m/z	relative intensity
15	58
27	24
28	109
29	14
32	11
39	43
50	19
51	24
58	88
62	27
63	68
64	10
65	30
74	17
75	19
77	12
87	15
88	17
89	65
113	17
114	24
115	460
116	258
117	23
127	26
143	19
144	999
145	110
201	34
