Mass spectrum: PARA-METHOXYBENZOYL CHLORIDE; EI-MS
Name: PARA-ANISOYL CHLORIDE
Formula: C8H7ClO2
Exact mass: 170.01346
Instrument type: EI-MS
m/z	relative intensity
35	31
36	157
37	28
38	83
39	22
40	23
44	22
45	15
50	90
51	46
52	16
53	30
61	33
62	54
63	158
64	150
65	25
73	21
74	53
75	49
76	46
77	268
78	32
79	27
83	13
91	27
92	241
93	21
99	15
105	16
107	109
111	12
120	25
121	15
122	40
127	12
135	999
136	94
154	22
170	91
172	31
