Mass spectrum: MALIC ANHYDRIDE; EI-MS
Formula: C4H2O3
Exact mass: 98.00039
Instrument type: EI-MS
m/z	relative intensity
26	819
27	29
28	136
32	45
42	12
44	25
53	29
54	999
55	48
70	17
98	399
99	20
100	16
113	19
118	20
