Mass spectrum: NAPROPAMIDE; EI-MS
Name: N,N-DIETHYL-2-(1-NAPHTHALENYLOXY)PROPANAMIDE
Formula: C17H21NO2
Exact mass: 271.15723
Instrument type: EI-MS
m/z	relative intensity
29	27
55	15
57	76
72	999
73	46
74	21
100	319
101	22
115	18
116	10
127	28
128	614
129	51
143	17
144	65
153	10
171	114
172	15
271	312
272	59
