Mass spectrum: 1,1-DIMETHYLSILACYCLOPENTANE; EI-MS
Formula: C6H14Si
Exact mass: 114.08648
Instrument type: EI-MS
m/z	relative intensity
27	38
28	28
29	92
31	64
39	28
41	15
42	54
43	318
44	50
45	99
53	39
54	10
55	70
56	17
57	35
58	615
59	340
60	41
61	12
67	14
69	11
70	25
71	292
72	72
73	31
83	15
85	42
86	999
87	104
88	40
95	14
97	108
98	16
99	486
100	56
101	19
114	232
115	26
116	9
