Mass spectrum: 4-ISOPROPYL-2-METHYL-1,2,3,3A,6,6A-HEXAHYDROPYRROLO(3,4-C)PYRROLE-1,3-DIONE; EI-MS
Formula: C10H14N2O2
Exact mass: 194.10553
Instrument type: EI-MS
m/z	relative intensity
39	277
40	137
41	575
42	105
43	191
55	85
56	89
58	119
59	62
66	86
67	113
68	307
69	68
74	95
82	87
83	892
84	57
94	160
112	68
113	204
126	106
152	60
153	59
159	79
179	999
180	111
194	498
195	278
