Mass spectrum: 2,5-DIMETHOXYPHENYLACETIC ACID; EI-MS
Formula: C10H12O4
Exact mass: 196.07356
Instrument type: EI-MS
m/z	relative intensity
65	61
66	18
77	81
78	35
79	38
91	85
92	16
93	25
94	26
105	26
107	16
108	26
109	52
121	291
122	30
123	27
135	20
137	691
138	62
139	17
149	101
151	247
152	41
163	62
181	45
196	999
197	113
198	14
