Mass spectrum: ETHYL LAURATE; EI-MS
Formula: C14H28O2
Exact mass: 228.20893
Instrument type: EI-MS
m/z	relative intensity
27	73
28	26
29	227
39	3
40	11
41	249
42	70
43	27
44	11
45	73
53	18
54	2
55	176
56	44
57	147
59	1
60	121
61	147
67	22
68	2
69	88
70	132
71	51
73	15
74	22
81	18
82	11
83	6
84	37
85	33
87	22
88	999
89	128
90	11
95	22
97	4
98	29
101	388
102	37
109	2
111	15
115	48
125	11
129	3
130	11
143	48
144	11
157	8
158	11
171	15
183	99
184	2
185	59
186	15
199	22
228	15
229	26
