Mass spectrum: 4-(3-CHLOROBENZOYL)-3-PHENYL-5-OXAZOLONE; EI-MS
Formula: C16H10ClNO3
Exact mass: 299.03492
Instrument type: EI-MS
m/z	relative intensity
39	22
50	59
51	69
52	17
62	13
63	40
74	27
75	148
76	96
77	70
85	18
87	11
89	58
90	12
102	159
103	56
104	30
105	16
110	11
111	414
112	77
113	163
114	29
116	75
117	17
132	12
139	999
140	373
141	762
142	182
144	26
156	11
299	50
301	22
