Mass spectrum: 2-PHENYLBUTYRIC ACID; EI-MS
Formula: C10H12O2
Exact mass: 164.08373
Instrument type: EI-MS
m/z	relative intensity
41	50
43	10
55	10
56	1
57	10
58	10
60	10
77	1
78	20
79	30
90	10
91	999
92	60
103	10
104	20
105	1
107	20
117	20
118	20
119	55
120	60
135	20
136	50
146	1
164	300
165	60
