Mass spectrum: DIMETHYL 8,13,17-TRIOXO-5,6,7,8,13,14,15,16-OCTAHYDRO-6,15-METHANOBENZO(A)NAPHTHO(2,3-F)CYCLODECENE-6,15-DICARBOXYLATE; EI-MS
Formula: C27H22O7
Exact mass: 458.13655
Instrument type: EI-MS
m/z	relative intensity
59	76
77	64
104	219
105	169
115	144
116	67
128	70
133	76
155	70
165	58
183	255
215	735
216	106
239	70
242	165
252	93
265	124
274	421
275	64
309	58
310	120
311	178
312	64
338	125
339	81
366	111
367	132
426	185
427	123
428	132
458	999
459	300
460	81
