Mass spectrum: 3,4-METHYLENEDIOXYBENZENEACETIC ACID; EI-MS
Formula: C9H8O4
Exact mass: 180.04226
Instrument type: EI-MS
m/z	relative intensity
77	72
78	11
79	27
105	41
135	999
136	89
179	14
180	667
181	66
182	10
