Mass spectrum: DIMETHYLPHENYLSILANE (D); EI-MS
Formula: C8H12Si
Exact mass: 136.07083
Instrument type: EI-MS
m/z	relative intensity
43	112
44	27
58	671
59	61
60	34
96	19
105	34
106	19
107	19
120	39
121	15
122	999
123	146
124	116
135	107
136	107
137	539
138	80
139	27
