Mass spectrum: BRUCINE; EI-MS
Formula: C23H26N2O4
Exact mass: 394.18926
Instrument type: EI-MS
m/z	relative intensity
28	10
39	10
41	26
42	19
43	18
53	14
55	30
56	13
65	11
77	30
78	11
79	29
80	18
81	12
91	28
93	15
94	16
105	14
106	17
107	34
108	33
115	13
117	16
118	13
119	14
120	39
121	14
122	14
128	10
130	11
131	10
132	14
133	11
134	23
136	17
138	13
146	23
160	14
161	16
162	27
163	12
174	22
188	15
189	27
190	37
191	13
197	33
203	45
204	25
228	10
244	10
256	12
257	12
365	11
379	131
380	35
393	24
394	999
395	259
396	43
