Mass spectrum: 4-PYRIDINONE; EI-MS
Formula: C5H5NO
Exact mass: 95.03711
Instrument type: EI-MS
m/z	relative intensity
25	13
26	75
27	52
29	68
37	52
38	95
39	272
40	210
41	245
42	74
43	27
44	79
48	11
49	22
50	70
51	68
52	43
53	70
54	16
55	71
64	10
65	10
66	60
67	245
68	237
69	30
76	18
78	10
94	47
95	999
96	68
