Mass spectrum: 4-(PENTAFLUOROBENZOYL)-1-OXA-3-PHENYL-2-AZACYCLOPENT-2-EN-5-ONE; EI-MS
Formula: C16H6F5NO3
Exact mass: 355.02678
Instrument type: EI-MS
m/z	relative intensity
39	21
50	19
51	30
52	12
63	29
74	11
75	13
76	27
77	17
89	31
93	12
102	85
103	16
116	14
117	54
167	162
168	13
195	999
196	118
311	11
355	47
