Mass spectrum: DIETHYL ACETAMIDOMALONATE; EI-MS
Formula: C9H15NO5
Exact mass: 217.09502
Instrument type: EI-MS
m/z	relative intensity
15	18
27	51
28	88
29	128
30	19
42	15
43	334
44	14
45	11
46	28
57	55
58	11
71	22
72	14
74	205
99	257
100	30
102	999
103	116
116	24
127	57
144	135
145	154
146	13
172	91
173	22
176	19
218	178
219	18
