Mass spectrum: N-2(E)-BUTENYL-N-BUTYLHYDROXYACETAMIDE; EI-MS
Formula: C10H19NO2
Exact mass: 185.14158
Instrument type: EI-MS
m/z	relative intensity
29	63
30	51
31	82
39	70
41	90
42	53
53	55
55	740
56	82
57	53
70	199
82	69
83	206
84	142
85	145
86	72
88	92
112	58
126	127
128	118
142	93
154	367
156	149
184	84
185	396
186	999
187	612
188	69
