Mass spectrum: 3,4,6,7-TETRAHYDROXYTROPOLONE; EI-MS
Formula: C7H6O6
Exact mass: 186.01644
Instrument type: EI-MS
m/z	relative intensity
40	43
42	44
43	94
44	82
53	128
54	64
55	96
56	40
57	25
58	45
66	134
67	35
69	219
70	62
71	96
83	68
84	110
87	25
93	29
94	100
95	21
112	77
113	238
114	25
122	25
129	76
139	26
140	106
157	69
158	806
159	67
185	26
186	999
187	109
