Mass spectrum: 1,3-DI(BROMOMETYL)-2,5-DIMETHOXYBENZENE; EI-MS
Formula: C10H12Br2O2
Exact mass: 321.9204
Instrument type: EI-MS
m/z	relative intensity
38	23
39	75
50	41
51	83
52	46
53	47
55	12
61	15
62	48
63	112
64	36
65	110
66	39
67	73
74	32
75	33
76	38
77	233
78	192
79	77
80	10
81	26
82	15
86	18
87	16
88	13
89	108
90	75
91	27
92	44
93	48
94	14
95	20
96	10
98	12
102	19
103	73
104	82
105	93
106	33
107	20
117	10
118	19
119	53
120	41
121	332
122	79
133	37
134	212
135	999
136	278
137	28
148	14
149	349
150	213
151	21
163	14
164	24
165	137
166	16
183	32
184	14
185	32
199	15
201	13
213	119
214	19
215	124
216	14
227	16
228	13
229	18
230	13
243	727
244	118
245	703
246	104
247	10
309	12
322	122
324	220
326	118
327	13
