Mass spectrum: 4,7-DI(PARA-ETHOXYPHENYL)-6-(PARA-METHYLPHENYL)-1,2,5-THIADIAZOLO(3,4-C)PYRIDINE; EI-MS
Formula: C28H25N3O2S
Exact mass: 467.16675
Instrument type: EI-MS
m/z	relative intensity
32	30
44	56
45	29
180	35
197	29
198	35
205	35
381	30
382	39
410	87
411	29
422	26
438	177
439	62
440	23
466	139
467	999
468	330
469	102
