Mass spectrum: 4,4'-DIMETHYLBENZOPHENONE; EI-MS
Formula: C15H14O
Exact mass: 210.10447
Instrument type: EI-MS
m/z	relative intensity
18	11
28	17
39	47
41	15
51	22
62	11
63	42
64	13
65	148
89	51
90	45
91	361
92	30
119	999
120	88
152	10
165	40
166	14
167	10
181	18
182	14
195	283
196	45
209	37
210	445
211	75
