Mass spectrum: 1,2-DICHLOROTETRAETHYLDISILANE; EI-MS
Formula: C8H20Cl2Si2
Exact mass: 242.04806
Instrument type: EI-MS
m/z	relative intensity
54	21
56	95
57	53
58	263
59	999
60	274
61	42
63	242
64	32
65	358
66	21
67	95
75	11
79	21
86	937
87	347
88	53
91	42
92	74
93	495
94	53
95	168
115	95
120	147
121	326
122	84
123	116
157	32
159	21
185	32
187	21
207	17
213	29
215	21
242	16
244	11
