Mass spectrum: META-CYANONITROBENZENE; EI-MS
Name: 3-NITROBENZONITRILE
Formula: C7H4N2O2
Exact mass: 148.02728
Instrument type: EI-MS
m/z	relative intensity
14	12
16	12
18	15
26	21
27	76
30	772
37	67
38	81
39	96
46	65
49	40
50	259
51	329
52	75
61	24
62	43
63	80
64	52
73	24
74	97
75	448
76	249
77	16
90	215
91	17
99	30
100	18
101	14
102	999
103	87
116	12
118	47
122	10
132	70
148	623
149	115
150	17
152	14
