Mass spectrum: META-METHOXYACETOPHENONE; EI-MS
Name: META-ACETYLANISOLE
Formula: C9H10O2
Exact mass: 150.06808
Instrument type: EI-MS
m/z	relative intensity
29	17
38	30
39	32
42	18
43	187
50	58
51	48
52	16
53	16
62	35
63	122
64	124
65	39
74	32
75	25
76	53
77	294
78	56
79	26
91	25
92	226
93	18
107	337
108	29
120	10
135	999
136	67
150	585
151	46
