Mass spectrum: 4,7-DI(4-ETHOXYPHENYL)-6-PHENYL-1,2,5-THIADIAZOLO(3,4-C)PYRIDINE; EI-MS
Formula: C27H23N3O2S
Exact mass: 453.1511
Instrument type: EI-MS
m/z	relative intensity
32	124
41	43
43	36
44	50
45	28
55	26
57	32
69	45
77	35
165	46
189	28
190	39
367	41
368	49
396	77
397	36
424	165
425	65
452	122
453	999
454	294
455	95
