Mass spectrum: 4-METHYL-2,6-DI-TERT-BUTYLPHENYL-N-METHYLCARBAMATE; EI-MS
Name: MBPMC
Formula: C17H25NO2
Exact mass: 275.18853
Instrument type: EI-MS
m/z	relative intensity
41	35
55	27
57	102
58	27
77	10
91	24
105	34
115	18
119	24
121	23
128	15
129	16
131	18
133	15
145	47
147	10
149	21
157	11
161	34
163	19
177	39
189	41
205	999
206	169
207	15
220	672
221	121
222	11
