Mass spectrum: 4-(4-FLUOROBENZOYL)-3-PHENYL-5-ISOXAZOLONE; EI-MS
Formula: C16H10FNO3
Exact mass: 283.06447
Instrument type: EI-MS
m/z	relative intensity
39	21
50	33
51	56
52	16
62	10
63	34
69	17
74	18
75	101
76	51
77	57
89	47
90	11
94	26
95	479
96	73
102	128
103	54
104	16
105	12
116	59
122	14
123	999
124	333
132	10
140	14
144	17
283	56
