Mass spectrum: 1-METHYLHYDANTOIN; EI-MS
Name: 1-METHYLIMIDAZOLIDINE-2,4-DIONE
Formula: C4H6N2O2
Exact mass: 114.04293
Instrument type: EI-MS
m/z	relative intensity
41	13
42	470
43	999
44	12
45	70
46	30
55	150
56	17
57	200
58	170
59	70
60	15
67	30
68	30
69	130
70	13
71	200
72	30
73	70
74	3
81	70
82	70
83	80
84	8
85	150
86	100
87	30
91	3
95	50
96	50
97	50
98	5
99	80
109	30
110	30
111	3
112	30
113	30
114	900
115	7
116	10
