Mass spectrum: 2,5-DIMETHOXYBENZOIC ACID; EI-MS
Formula: C9H10O4
Exact mass: 182.05791
Instrument type: EI-MS
m/z	relative intensity
39	23
41	59
43	19
51	24
52	27
53	36
55	44
59	13
63	21
64	16
65	64
67	17
68	20
69	27
77	80
79	120
80	36
81	14
92	43
93	35
94	30
95	163
96	30
106	24
107	245
108	113
109	160
110	14
111	76
122	30
123	112
124	14
133	16
135	427
136	74
137	32
139	17
149	31
150	38
151	23
153	61
163	46
164	20
165	65
166	24
167	399
168	36
182	999
183	99
184	13
