Mass spectrum: METHYL 2-(N-METHYL-N-((4S)-4-(1-METHYLETHYL)-2-OXAZOLIDINONE-3-CARBAMOYL))AMINOACETATE; EI-MS
Formula: C11H18N2O5
Exact mass: 258.12157
Instrument type: EI-MS
m/z	relative intensity
101	16
102	831
103	143
104	62
112	122
114	75
115	11
129	205
132	16
140	31
144	74
146	43
156	13
165	56
167	24
170	14
171	14
182	26
187	14
191	21
198	27
199	999
200	115
201	11
203	11
214	55
226	63
227	106
228	12
232	17
244	10
258	306
259	39
