Mass spectrum: 4-TERT-BUTYLPYROCATECHOL; EI-MS
Formula: C10H14O2
Exact mass: 166.09938
Instrument type: EI-MS
m/z	relative intensity
42	80
43	15
44	93
50	10
51	39
52	16
53	20
55	24
63	19
64	11
65	29
67	10
75	17
76	22
77	54
78	13
79	27
89	18
91	18
93	45
103	14
105	61
107	19
110	23
111	60
123	134
124	13
133	25
135	18
136	15
150	23
151	999
152	103
166	333
167	37
