Mass spectrum: 4,5-DIACETYL-3-PHENYLOXAZOLIDINE (4,5-TRANS); EI-MS
Name: (4S,5S)-4,5-DIACETYL-3-PHENYLOXAZOLIDINE
Formula: C13H15NO3
Exact mass: 233.10519
Instrument type: EI-MS
m/z	relative intensity
39	35
41	24
42	43
43	399
50	21
51	95
65	48
77	245
78	35
91	222
92	25
104	112
105	40
106	43
117	43
118	155
119	42
120	194
121	22
130	27
146	318
148	191
149	505
150	60
160	61
161	63
162	253
163	31
190	999
191	146
233	211
234	35
