Mass spectrum: 3,5-DIMETHOXYCINNAMIC ACID; EI-MS
Formula: C11H12O4
Exact mass: 208.07356
Instrument type: EI-MS
m/z	relative intensity
55	9
65	9
66	9
69	12
77	38
78	14
79	20
90	10
91	32
94	10
102	8
103	19
105	26
107	13
109	16
117	10
118	20
119	15
120	10
121	25
122	9
132	20
133	44
134	15
135	24
137	34
147	22
148	41
149	14
160	9
161	76
162	20
163	75
164	15
165	18
177	74
178	11
179	28
180	9
189	18
191	47
192	9
193	14
207	88
208	999
209	122
210	15
