Mass spectrum: 4-METHOXYBENZOPHENONE; EI-MS
Formula: C14H12O2
Exact mass: 212.08373
Instrument type: EI-MS
m/z	relative intensity
38	19
39	28
40	19
44	12
50	65
51	157
52	10
53	14
62	18
63	89
64	119
65	22
74	25
75	25
76	54
77	557
78	45
79	18
89	13
91	15
92	235
93	17
104	11
105	187
106	18
107	113
115	43
119	26
135	999
136	147
137	14
139	37
140	13
141	38
152	20
153	11
168	13
169	46
181	57
182	10
196	16
211	41
212	639
213	120
214	13
