Mass spectrum: 2,4-DIFLUOROBENZOIC ACID; EI-MS
Formula: C7H4F2O2
Exact mass: 158.01794
Instrument type: EI-MS
m/z	relative intensity
31	34
37	20
38	13
45	50
50	44
51	11
56	14
57	31
61	32
62	52
63	243
64	16
68	43
69	20
73	11
74	39
75	29
81	32
82	22
87	12
88	16
92	17
93	40
94	56
101	13
110	15
112	27
113	328
114	50
130	13
141	999
142	76
158	810
159	64
