Mass spectrum: 2,2,5,5-TETRAMETHYLCYCLOPENTANONE; EI-MS
Formula: C9H16O
Exact mass: 140.12012
Instrument type: EI-MS
m/z	relative intensity
41	91
55	47
56	999
57	507
69	196
70	46
72	196
97	35
112	53
125	26
140	234
141	26
