Mass spectrum: DICHLOROACETIC ACID METHYL ESTER; EI-MS
Formula: C3H4Cl2O2
Exact mass: 141.95883
Instrument type: EI-MS
m/z	relative intensity
40	11
44	12
47	27
48	68
49	18
50	24
59	999
60	33
63	88
65	39
76	43
78	16
83	494
84	12
85	320
87	57
98	14
100	12
111	17
113	21
