Mass spectrum: 4-METHOXYCARBONYL-5,6-DIPHENYL-2-(PARA-TOLYL)PERHYDROPYRROLO(3,4-C)PYRROLE-1,3-DIONE(3A,4-CIS-6,6A-TRANS); EI-MS
Name: (4S,6S)-4-METHOXYCARBONYL-5,6-DIPHENYL-2-(PARA-TOLYL)PERHYDROPYRROLO(3,4-C)PYRROLE-1,3-DIONE
Formula: C27H24N2O4
Exact mass: 440.17361
Instrument type: EI-MS
m/z	relative intensity
38	30
43	58
51	35
52	25
77	137
78	198
91	47
104	67
115	80
116	30
117	49
191	51
220	278
221	54
272	149
273	34
287	47
381	999
382	286
383	48
440	221
441	74
