Mass spectrum: O,O-DIETHYL S-(6-CHLOROBENZOXZAOLON-3-YL)METHYL PHOSPHORODITHIOATE; EI-MS
Name: PHOSALONE
Formula: C12H15ClNO4PS2
Exact mass: 366.98686
Instrument type: EI-MS
m/z	relative intensity
39	17
41	17
45	50
46	43
47	46
50	33
51	42
61	15
62	17
63	68
64	25
65	206
74	10
75	99
76	79
77	24
78	25
80	18
85	11
90	16
91	16
93	89
95	12
97	293
99	51
101	13
102	94
103	27
108	17
109	13
111	203
112	33
113	84
114	12
121	499
122	21
125	165
126	20
127	27
129	147
131	15
138	149
139	13
140	68
141	19
142	12
143	17
153	162
154	281
155	27
156	16
157	37
169	60
170	42
171	39
172	14
182	999
183	108
184	332
185	56
199	59
367	265
368	45
369	110
370	18
