Mass spectrum: 1-HYDROXY-6-METHYLBICYCLO(4.3.0)NONANE-3,7-DIONE; EI-MS
Formula: C10H14O3
Exact mass: 182.09429
Instrument type: EI-MS
m/z	relative intensity
38	25
39	340
40	102
41	510
42	110
43	637
44	42
45	25
50	64
51	113
52	85
53	234
54	93
55	323
56	229
57	93
58	38
59	13
62	15
63	47
64	13
65	117
66	70
67	110
68	49
69	478
70	119
71	194
72	21
73	36
74	15
77	149
78	64
79	500
80	149
81	140
82	66
83	183
84	289
85	66
86	15
91	74
92	28
93	155
94	195
95	340
96	93
97	378
98	119
99	81
100	11
105	25
107	191
108	85
109	395
110	108
111	121
112	132
113	238
114	25
121	178
122	577
123	270
124	89
125	999
126	178
127	76
136	141
137	49
139	38
140	66
149	40
164	395
165	59
167	47
182	941
183	142
185	19
