Mass spectrum: N,N-DIISOPROPYLETHYLAMINE; EI-MS
Name: N-ETHYLDIISOPROPYLAMINE
Formula: C8H19N
Exact mass: 129.15175
Instrument type: EI-MS
m/z	relative intensity
15	16
18	19
27	73
28	51
29	37
30	139
39	29
41	101
42	139
43	120
44	275
56	50
58	41
70	85
71	19
72	999
73	48
84	28
86	62
114	872
115	72
128	12
129	300
130	30
