Mass spectrum: 4-AMINOHIPPURIC ACID; EI-MS
Formula: C9H10N2O3
Exact mass: 194.06914
Instrument type: EI-MS
m/z	relative intensity
18	17
28	22
39	40
41	14
44	11
45	13
52	14
63	26
64	25
65	158
66	24
91	30
92	224
93	24
119	30
120	999
121	86
149	59
150	154
151	19
160	28
161	19
176	10
194	246
195	27
