Mass spectrum: 5-(2,2,6-TRIMETHYLCYCLOHEXENEYL)-3-METHYL--2,4-PENTADIENYL ACETATE; EI-MS
Formula: C17H26O2
Exact mass: 262.19328
Instrument type: EI-MS
m/z	relative intensity
27	40
28	440
29	60
32	9
39	60
41	330
43	580
44	2
45	60
53	80
55	270
57	3
59	20
65	50
67	80
69	27
71	20
73	40
77	150
78	31
79	130
80	30
81	190
82	2
83	80
85	30
91	250
92	4
93	150
94	30
95	170
96	2
97	30
103	30
105	30
106	4
107	160
108	20
109	70
115	5
116	20
117	130
118	40
119	56
120	110
121	100
122	50
123	5
128	30
129	40
130	50
131	33
132	250
133	999
134	160
135	5
137	20
143	30
144	30
145	29
146	310
147	100
157	20
158	2
159	230
160	40
161	40
172	2
173	40
174	20
175	40
187	42
188	60
189	20
202	110
203	9
247	10
262	80
263	20
