Mass spectrum: TRIETHYLIODOSILANE; EI-MS
Formula: C6H15ISi
Exact mass: 241.99877
Instrument type: EI-MS
m/z	relative intensity
53	121
54	42
55	179
56	79
57	253
58	263
59	816
60	58
61	21
87	516
88	42
89	11
115	999
116	116
117	26
155	26
156	11
157	63
185	126
213	46
214	6
242	15
