Mass spectrum: ADIPICACID 3-METHYL-1,5-PENTANDIOL DIESTER; EI-MS
Name: 4-METHYL-1,7-DIOXATRIDECANE-8,12-DIONE
Formula: C12H20O4
Exact mass: 228.13616
Instrument type: EI-MS
m/z	relative intensity
29	134
41	287
42	163
43	18
55	766
56	163
67	628
68	8
69	86
82	999
83	441
84	14
99	134
100	230
101	272
111	25
115	111
129	456
