Mass spectrum: TRIMETHYLSILYL-1,3-BUTADIYNE; EI-MS
Formula: C7H10Si
Exact mass: 122.05518
Instrument type: EI-MS
m/z	relative intensity
53	105
54	11
55	32
65	11
66	11
67	21
77	95
79	63
91	32
107	999
108	116
109	32
122	205
123	21
