Mass spectrum: LIGULOXIDE; EI-MS
Formula: C15H26O
Exact mass: 222.19837
Instrument type: EI-MS
m/z	relative intensity
41	350
42	90
43	260
53	12
54	40
55	390
56	60
57	7
59	40
65	45
67	210
68	10
69	270
70	50
71	90
77	8
79	150
80	70
81	400
82	13
83	120
84	40
91	110
92	4
93	180
94	115
95	320
96	8
97	95
98	40
105	100
106	4
107	230
108	180
109	300
110	12
111	70
119	120
120	40
121	13
122	120
123	130
124	120
125	13
126	125
133	90
135	110
136	5
137	320
138	60
139	40
147	6
149	280
150	60
151	90
161	9
163	80
164	200
165	60
173	4
179	50
189	370
190	70
204	5
207	999
208	160
222	140
221	30
