Mass spectrum: 2-AMINO-6-ETHOXYBENZOTHIAZOLE; EI-MS
Formula: C9H10N2OS
Exact mass: 194.05138
Instrument type: EI-MS
m/z	relative intensity
29	19
52	12
69	15
78	15
79	14
80	30
83	11
95	26
96	22
105	12
106	26
110	104
111	42
112	77
121	27
122	31
124	11
137	137
138	121
139	161
140	17
165	961
166	665
167	104
168	34
194	999
195	128
196	55
