Mass spectrum: METHYL (1S,2R,(4A)R,(8A)R)-1,2,3,5,6,7,8,(8A)-OCTAHYDRO-2-METHYLNAPHTHALEN-4(4A)H-ONE-1-CARBOXYLATE; EI-MS
Formula: C13H20O3
Exact mass: 224.14124
Instrument type: EI-MS
m/z	relative intensity
35	53
40	122
41	54
42	51
43	369
44	73
47	227
48	103
49	74
50	47
53	40
58	153
67	45
69	101
80	47
81	97
82	51
83	999
84	46
85	682
87	114
114	50
118	47
120	44
122	46
124	228
147	151
149	43
164	72
165	53
224	86
