Mass spectrum: ETHYL LAURATE; EI-MS
Formula: C14H28O2
Exact mass: 228.20893
Instrument type: EI-MS
m/z	relative intensity
29	17
43	37
45	27
55	2
57	50
60	53
61	83
69	2
70	86
71	23
73	86
74	1
83	20
84	23
85	20
87	2
88	999
89	133
90	10
95	1
97	20
98	20
101	355
102	4
111	10
115	47
129	30
130	1
143	50
144	10
157	90
158	1
171	20
183	86
184	13
185	7
199	27
228	159
229	27
