Mass spectrum: TRANS-ORTHO-COUMARIC ACID; EI-MS
Formula: C9H8O3
Exact mass: 164.04734
Instrument type: EI-MS
m/z	relative intensity
17	14
18	42
26	12
27	27
28	13
29	21
37	15
38	40
39	132
40	16
41	22
43	20
44	11
45	52
50	53
51	86
52	22
53	30
55	14
59	15
61	25
62	65
63	167
64	62
65	146
66	20
73	10
74	29
75	48
76	14
77	16
78	14
79	20
86	14
87	15
89	216
90	314
91	305
92	44
101	25
103	33
107	21
118	999
119	133
120	28
146	345
147	71
164	287
165	31
