Mass spectrum: 5,18-DIOXO-5,6,7,8,15,16,17,18-OCTAHYDRO-7,16-METHANODINAPHTHO(2,3-A:2',3'-F)CYCLODECENE; EI-MS
Formula: C27H22O2
Exact mass: 378.16198
Instrument type: EI-MS
m/z	relative intensity
115	57
141	56
152	94
153	79
154	58
155	249
156	90
165	132
166	52
178	142
179	71
186	176
189	51
191	63
192	105
193	246
194	60
195	54
223	172
378	999
379	299
