Mass spectrum: N-BENZYLETHANOLAMINE; EI-MS
Formula: C9H13NO
Exact mass: 151.09971
Instrument type: EI-MS
m/z	relative intensity
25	84
26	232
27	427
29	527
30	301
31	446
33	217
36	11
37	71
38	120
39	204
40	311
41	123
42	280
43	999
45	149
51	143
53	25
54	26
55	70
58	144
62	24
63	63
65	141
66	18
70	11
75	23
79	25
89	46
91	365
105	16
118	18
