Mass spectrum: BENZYL LAURATE; EI-MS
Formula: C19H30O2
Exact mass: 290.22458
Instrument type: EI-MS
m/z	relative intensity
43	84
55	21
57	167
60	3
69	34
71	93
73	34
74	3
77	25
79	66
81	25
83	10
84	30
85	75
87	25
88	3
90	16
91	458
92	414
93	3
95	30
96	16
97	97
98	3
99	12
101	43
105	43
107	9
108	999
109	110
111	62
115	4
121	12
123	12
125	30
129	3
153	21
160	12
173	93
180	3
181	141
182	21
183	97
184	1
198	12
199	207
200	34
290	13
291	35
