Mass spectrum: 1-(2-METHOXY-3-PHENYLMETHOXYPHENYL)ETHANONE; EI-MS
Name: 3'-BENZYLOXY-2'-METHOXYACETOPHENONE
Formula: C16H16O3
Exact mass: 256.10994
Instrument type: EI-MS
m/z	relative intensity
43	27
65	20
91	999
92	81
150	35
151	108
152	10
213	68
214	68
238	36
256	31
257	5
