Mass spectrum: BETA-BROMOISOPROPYLBENZENE; EI-MS
Formula: C9H11Br
Exact mass: 198.00441
Instrument type: EI-MS
m/z	relative intensity
15	11
27	34
28	12
39	65
41	53
50	34
51	76
52	18
63	31
65	35
74	11
75	12
76	14
77	115
78	80
79	78
89	17
91	281
92	25
93	20
95	19
102	22
103	121
104	155
105	999
106	90
115	41
116	11
117	63
118	45
119	90
198	110
199	12
200	106
201	11
