Mass spectrum: HEXACHLOROBENZENE; EI-MS
Formula: C6Cl6
Exact mass: 281.81312
Instrument type: EI-MS
m/z	relative intensity
35	23
36	32
47	35
49	11
60	23
71	61
72	30
73	16
83	14
88	12
89	12
94	13
95	37
97	12
106	55
107	117
108	40
109	34
118	50
120	33
130	17
132	11
141	40
142	219
143	61
144	122
145	14
146	18
165	11
167	11
177	73
179	72
181	23
212	109
214	140
215	10
216	69
218	15
247	139
248	12
249	237
250	20
251	141
252	13
253	47
282	530
283	35
284	999
285	66
286	801
287	53
288	352
290	83
292	10
