Mass spectrum: 2,5-DIHYDROXY-1,4-BENZOQUINONE; EI-MS
Name: 2,5-DIHYDROX-P-QUINONE
Formula: C6H4O4
Exact mass: 140.01096
Instrument type: EI-MS
m/z	relative intensity
14	20
15	10
18	30
29	25
37	13
38	38
39	20
41	82
42	257
43	87
53	83
55	34
66	68
69	243
70	128
71	243
84	101
94	52
95	28
111	10
112	66
140	999
141	84
142	44
