Mass spectrum: 4,5-DIHYDROXYTROPOLONE; EI-MS
Formula: C7H6O4
Exact mass: 154.02661
Instrument type: EI-MS
m/z	relative intensity
37	50
38	78
39	139
41	80
42	166
43	139
50	104
51	205
52	503
53	258
54	131
55	247
56	44
62	37
63	59
69	149
70	34
71	43
79	87
80	341
81	49
82	38
97	122
108	62
110	59
125	59
126	999
127	70
154	369
155	38
