Mass spectrum: (E)-(3R)-(1'R,2'S,5'R)-8'-BETA-NAPHTHYLMENTHYL 3-BENZYLAMINO-5-PHENYL-4-PENTENOATE; EI-MS
Formula: C38H43NO2
Exact mass: 545.32938
Instrument type: EI-MS
m/z	relative intensity
394	63
406	48
432	24
438	74
439	22
440	113
441	46
454	718
455	245
456	34
479	72
494	63
506	63
518	29
543	294
544	125
545	999
546	399
547	72
