Mass spectrum: N,N-DIMETHYLBENZYLAMINE; EI-MS
Formula: C9H13N
Exact mass: 135.1048
Instrument type: EI-MS
m/z	relative intensity
15	45
27	19
29	13
30	28
38	15
39	84
40	14
41	38
42	227
43	81
44	96
50	29
51	68
52	18
57	37
58	999
59	38
62	17
63	55
64	16
65	142
66	12
67	10
77	40
78	16
89	37
90	17
91	491
92	87
118	32
132	16
134	293
135	492
136	53
