Mass spectrum: (E)-(3R)-(1'R,2'S,5'R)-8'-PHENYLMENTHYL 3-BENZYLAMINO-4-HEXENOATE; EI-MS
Formula: C29H39NO2
Exact mass: 433.29808
Instrument type: EI-MS
m/z	relative intensity
317	43
342	999
343	240
344	13
431	78
432	36
433	418
434	115
