Mass spectrum: BUTYL 4,7-DI(PARA-ETHOXYPHENYL)-1,2,5-THIADIAZOLO(3,4-C)PYRIDINE-6-CARBOXYLATE; EI-MS
Formula: C26H27N3O4S
Exact mass: 477.17223
Instrument type: EI-MS
m/z	relative intensity
38	75
40	351
42	111
54	111
56	195
65	88
77	79
91	106
104	89
119	71
121	99
149	76
157	134
198	89
290	91
291	103
292	115
319	68
320	281
321	91
348	185
349	120
364	77
376	95
377	683
378	177
477	999
478	359
479	116
