Mass spectrum: DIPHENYLDI(3-THIENYL)SILANE; EI-MS
Formula: C20H16S2Si
Exact mass: 348.04627
Instrument type: EI-MS
m/z	relative intensity
50	28
51	254
52	21
53	155
55	14
57	14
63	14
75	14
76	14
77	282
78	35
79	56
83	14
85	56
89	21
101	35
102	42
103	42
105	211
106	21
111	92
115	28
117	14
126	21
127	141
128	85
129	28
132	42
133	21
134	35
135	92
136	14
137	148
138	14
139	21
143	56
152	21
155	21
161	42
163	14
165	21
167	21
173	42
178	28
179	14
180	21
181	56
186	21
187	99
188	70
189	21
193	28
194	134
195	21
196	14
202	21
204	28
205	14
208	14
210	28
211	42
213	28
226	14
233	21
237	21
239	21
245	21
263	42
264	28
265	211
266	56
267	21
269	21
271	999
272	211
273	134
274	21
302	35
313	14
314	42
315	106
316	28
348	951
349	282
350	148
351	28
