Mass spectrum: (2,2,2-TRIMETHYL-1-PHENYL-1-(ORTHO-TOLYL)DISILANYL)(TRIMETHYLSILYL)ACETYLENE; EI-MS
Formula: C21H30Si3
Exact mass: 366.16553
Instrument type: EI-MS
m/z	relative intensity
43	32
58	11
59	11
73	521
74	32
75	11
78	11
105	32
115	11
116	170
117	21
118	64
119	32
133	32
134	21
135	713
136	96
137	32
140	43
143	32
145	43
148	64
149	649
150	96
151	21
155	85
163	74
165	64
177	149
178	521
179	106
18	32
181	21
187	21
191	64
192	202
193	53
194	32
195	128
196	85
197	11
201	160
202	181
203	43
204	11
205	11
209	32
21	43
211	777
212	160
213	32
215	106
216	266
217	255
218	64
219	32
23	64
231	500
232	128
233	96
245	11
259	21
263	64
273	32
275	11
277	53
278	43
279	11
291	11
292	21
293	999
294	319
295	106
296	11
307	11
351	223
352	74
353	32
366	809
367	319
368	117
369	21
