Mass spectrum: SILACYCLOHEXANE (1-D); EI-MS
Formula: C5H12Si
Exact mass: 100.07083
Instrument type: EI-MS
m/z	relative intensity
26	8
27	49
28	50
29	47
30	20
31	40
32	42
39	58
40	13
41	63
42	38
43	177
44	230
45	227
46	72
47	13
53	30
54	11
55	48
56	35
57	42
58	98
59	91
60	88
61	13
66	16
67	22
68	10
69	20
70	72
71	142
72	334
73	999
74	120
75	40
83	24
84	11
85	10
86	26
96	7
97	39
98	78
99	53
100	75
101	437
102	63
103	21
