Mass spectrum: 1,2-EPOXY-3,7,11-TRIMETHYL-(6Z,10)-DODECADIENE-3-OL; EI-MS
Formula: C15H26O2
Exact mass: 238.19328
Instrument type: EI-MS
m/z	relative intensity
27	60
28	50
29	90
31	6
39	50
41	460
42	40
43	58
44	100
45	730
53	60
52	2
55	310
56	20
57	20
58	16
59	310
65	20
67	260
68	4
69	999
70	80
71	70
72	6
73	330
74	150
75	30
77	2
79	60
81	240
82	840
83	23
84	20
85	30
87	150
88	5
89	260
90	20
91	20
93	5
94	60
95	330
96	60
97	6
99	40
101	40
103	100
105	2
107	60
108	40
109	280
110	4
113	90
114	20
115	20
116	2
117	40
121	70
122	20
123	13
124	30
127	20
131	30
133	8
135	80
139	30
147	20
149	7
150	60
151	60
153	100
159	2
164	60
165	30
177	30
191	17
192	20
209	140
220	18
