Mass spectrum: 6-(ISOBUTYLDIMETHYLSILYL)-2-(PENTAMETHYLDISILANYL)-5-(TRIMETHYLSILYL)NAPHTHALENE; EI-MS
Formula: C24H44Si4
Exact mass: 444.25201
Instrument type: EI-MS
m/z	relative intensity
41	11
43	11
59	32
72	116
73	474
74	32
86	242
87	11
99	63
114	568
116	999
117	484
118	242
119	11
129	32
131	158
132	21
222	653
223	147
224	53
231	179
232	84
233	32
252	537
253	147
254	42
283	21
285	32
299	147
300	84
301	32
313	105
314	63
315	726
316	253
317	105
318	21
329	63
330	11
320	11
371	242
372	95
373	263
374	95
375	42
388	84
389	358
390	158
391	42
429	21
430	11
444	13
