Mass spectrum: 5ALPHA-ANDROST-1-ENE-3,17-DIONE; EI-MS
Formula: C19H26O2
Exact mass: 286.19328
Instrument type: EI-MS
m/z	relative intensity
43	14
55	33
67	58
68	20
69	157
79	55
80	42
81	90
82	27
83	16
91	39
92	14
93	112
94	58
95	100
96	19
97	95
98	14
105	81
106	43
107	147
108	137
109	356
110	172
111	61
117	17
118	17
119	74
120	56
121	220
122	999
123	253
124	38
131	45
132	28
133	92
134	149
135	96
136	74
137	31
143	19
144	27
145	57
146	49
147	199
148	81
149	92
150	51
151	58
152	28
157	23
158	28
159	68
160	51
161	47
162	24
163	28
164	39
165	46
171	17
172	18
173	44
174	55
175	30
176	18
177	39
178	13
183	16
184	12
185	25
186	16
187	43
188	34
189	30
190	16
197	12
199	17
200	28
201	42
202	341
203	74
211	15
213	13
214	13
215	46
216	105
217	24
227	32
228	11
229	54
230	28
231	16
242	38
243	35
244	988
245	186
247	19
253	24
257	16
259	42
271	45
272	11
286	736
287	158
288	25
