Mass spectrum: 4-BENZOYL-6-PHENYL-2H-PYRAN-2-ONE; EI-MS
Formula: C18H12O3
Exact mass: 276.07864
Instrument type: EI-MS
m/z	relative intensity
39	28
41	33
43	68
45	29
50	40
51	150
52	28
73	50
77	550
78	57
79	37
105	999
106	87
133	66
171	77
238	172
239	32
248	193
249	41
276	189
277	39
