Mass spectrum: ETHOXYTRIMETHYLSILANE; EI-MS
Formula: C5H14OSi
Exact mass: 118.08139
Instrument type: EI-MS
m/z	relative intensity
52	21
53	58
54	11
56	21
58	21
59	116
60	553
61	53
62	121
73	411
75	999
76	63
77	32
102	11
103	695
104	58
105	21
118	4
