Mass spectrum: ETHYL 2-FLUORENYLMETHYLCARBOXYLATE; EI-MS
Formula: C17H16O2
Exact mass: 252.11503
Instrument type: EI-MS
m/z	relative intensity
43	13
45	14
51	10
63	10
76	27
89	41
90	30
126	9
127	7
128	9
139	14
150	17
151	45
152	92
153	15
163	8
164	6
165	37
166	9
167	7
175	8
176	82
177	84
178	637
179	999
180	159
181	12
223	43
224	14
251	7
252	495
253	93
254	10
