Mass spectrum: TERT-BUTYLAMINE; EI-MS
Formula: C4H11N
Exact mass: 73.08915
Instrument type: EI-MS
m/z	relative intensity
15	39
18	61
27	20
28	36
29	26
30	98
39	34
41	143
42	109
43	24
55	10
56	20
57	54
58	999
59	43
73	2
74	2
