Mass spectrum: N-PHTHALOYLGLYCINE; EI-MS
Name: 1,3-DIOXO-2-ISOINDOLINEACETIC ACID
Formula: C10H7NO4
Exact mass: 205.03751
Instrument type: EI-MS
m/z	relative intensity
28	11
38	12
45	23
50	90
51	37
52	15
66	18
74	50
75	56
76	161
77	138
78	15
102	12
104	147
105	65
117	17
130	16
132	34
133	107
160	999
161	668
162	67
205	14
