Mass spectrum: DIBUTYL MALEATE; EI-MS
Formula: C12H20O4
Exact mass: 228.13616
Instrument type: EI-MS
m/z	relative intensity
28	17
29	48
41	82
55	3
56	192
57	688
58	31
72	1
75	62
82	24
99	999
100	21
101	21
113	10
117	510
118	3
126	21
127	21
139	10
153	1
154	72
155	151
156	50
157	2
171	21
172	17
173	168
174	17
