Mass spectrum: METHYL 2-(N-((4S)-4-(2-METHYLPROPYL)-2-OXAZOLIDINONE-3-CARBAMOYL))AMINOACETATE; EI-MS
Formula: C11H18N2O5
Exact mass: 258.12157
Instrument type: EI-MS
m/z	relative intensity
100	12
101	12
114	165
115	12
118	16
120	17
132	12
143	24
144	38
158	53
159	10
171	139
182	20
183	18
199	999
200	69
201	14
202	187
203	10
226	64
227	76
243	46
258	264
259	26
