Mass spectrum: 7BETA-ISOPROPENYL-1,(4A)BETA-DIMETHYL-3,4,(4A),5,6,7,8,8ABETA-OCTAHYDRONAPHTHALENE; EI-MS
Formula: C15H24
Exact mass: 204.1878
Instrument type: EI-MS
m/z	relative intensity
36	150
39	262
40	180
41	644
42	144
43	788
44	200
53	240
55	421
58	255
59	230
65	238
67	391
68	309
69	204
73	380
77	253
79	481
80	163
81	562
82	159
88	139
91	502
92	197
93	745
94	296
95	358
97	292
105	472
106	230
107	781
108	517
109	863
110	213
119	277
120	213
121	388
122	734
123	249
133	328
134	197
135	204
147	270
148	167
149	150
161	999
162	294
163	172
175	228
189	303
204	476
205	155
