Mass spectrum: 3H,4H-PYRRO(1,2-D)(1,2,4)TRIAZIN-4-ONE; EI-MS
Formula: C6H5N3O
Exact mass: 135.04326
Instrument type: EI-MS
m/z	relative intensity
50	207
51	412
52	754
53	104
55	10
56	32
62	25
63	55
64	115
65	111
66	43
67	30
68	29
75	14
76	18
77	11
78	87
79	461
80	31
106	14
135	999
136	85
