Mass spectrum: 1-NAPHTHALENEACETIC ACID; EI-MS
Formula: C12H10O2
Exact mass: 186.06808
Instrument type: EI-MS
m/z	relative intensity
44	78
45	11
50	15
51	21
57	38
62	13
63	38
64	11
65	14
70	19
71	23
74	14
75	16
77	14
87	14
89	22
91	11
113	14
114	11
115	173
116	18
127	17
128	21
129	10
139	83
140	33
141	999
142	146
143	11
156	11
186	396
187	54
