Mass spectrum: ENDO-NORBORNEOL; EI-MS
Name: ENDO-BICYCLO(2.2.1)HEPTAN-2-OL
Formula: C7H12O
Exact mass: 112.08882
Instrument type: EI-MS
m/z	relative intensity
28	16
29	23
40	15
42	3
43	45
44	34
45	49
53	4
54	25
55	113
56	85
57	18
58	31
65	10
66	479
67	44
68	48
69	52
70	98
71	5
77	24
78	10
79	597
80	5
81	52
82	15
83	113
84	5
91	10
93	45
94	999
95	8
97	47
111	11
112	41
