Mass spectrum: BETA-CARYOPHYLLENE; EI-MS
Formula: C15H24
Exact mass: 204.1878
Instrument type: EI-MS
m/z	relative intensity
41	999
42	100
43	300
44	8
45	45
50	40
51	115
52	9
53	340
54	75
55	480
56	10
57	110
63	60
65	160
66	8
67	350
68	185
69	630
70	8
77	325
78	130
79	490
80	17
81	410
82	160
83	90
91	44
92	205
93	695
94	520
95	25
96	80
97	55
103	50
104	5
105	355
106	220
107	340
108	14
109	190
110	80
111	60
115	5
117	80
118	50
119	240
120	29
121	240
122	110
123	125
131	7
132	50
133	400
134	140
135	13
136	90
137	60
138	60
147	17
148	165
149	90
150	40
161	27
162	90
163	60
164	40
175	7
176	60
177	50
189	110
190	3
204	140
205	50
