Mass spectrum: 3-(4-BENZYLOXY-3-METHOXYSTYRYL)-5-PENTYL-2-ISOXAZOLINE; EI-MS
Formula: C24H29NO3
Exact mass: 379.21474
Instrument type: EI-MS
m/z	relative intensity
39	48
41	112
43	77
51	39
55	37
66	138
77	24
89	23
91	999
92	83
146	26
160	62
188	31
192	32
216	14
288	71
289	18
378	13
379	27
