Mass spectrum: 2,2-DIMETHYL-4-ISOPROPENYL-1,3-DIOXOLANE; EI-MS
Formula: C8H14O2
Exact mass: 142.09938
Instrument type: EI-MS
m/z	relative intensity
27	71
29	75
31	27
39	15
40	36
41	195
42	277
43	999
44	48
53	41
54	19
55	9
56	43
57	39
58	39
59	13
61	19
67	55
69	74
70	4
71	19
72	632
73	40
83	9
84	88
85	200
97	100
101	3
112	174
127	627
128	52
