Mass spectrum: 3,4-DIAMINOPYRIDINE; EI-MS
Formula: C5H7N3
Exact mass: 109.064
Instrument type: EI-MS
m/z	relative intensity
18	21
26	27
27	38
28	226
29	31
30	19
37	12
38	48
39	42
40	58
41	103
42	50
43	17
51	19
52	121
53	76
54	212
55	135
56	47
64	27
65	69
66	31
67	23
68	15
69	36
80	11
81	152
82	142
92	14
93	13
108	48
109	999
110	70
