Mass spectrum: 2-TRIFLUOROMETHYLBENZOPHENONE; EI-MS
Formula: C14H9F3O
Exact mass: 250.06055
Instrument type: EI-MS
m/z	relative intensity
39	22
50	111
51	276
52	13
57	10
62	10
63	12
69	22
74	40
75	97
76	55
77	543
78	38
95	96
99	19
105	999
106	105
107	15
119	12
125	75
126	40
144	11
145	365
146	34
151	12
152	18
173	341
174	36
181	18
183	27
201	29
211	16
231	50
232	10
250	860
251	178
