Mass spectrum: CIS-N-METHYL-4-((E)-CINNAMOYL)-4-CYCLOHEXENE-1,2-DICARBOXIMIDE; EI-MS
Formula: C18H17NO3
Exact mass: 295.12084
Instrument type: EI-MS
m/z	relative intensity
38	43
51	129
52	42
53	39
58	42
76	40
77	519
78	145
79	171
91	45
102	81
103	517
104	81
105	169
112	88
113	68
115	35
131	731
132	94
141	47
155	39
156	45
165	38
171	36
181	49
183	194
184	204
191	41
192	78
209	109
210	54
294	404
295	999
296	206
