Mass spectrum: BIBENZYL; EI-MS
Name: 1,2-DIPHENYLETHANE
Formula: C14H14
Exact mass: 182.10955
Instrument type: EI-MS
m/z	relative intensity
27	41
28	50
32	18
38	14
39	196
40	17
41	60
50	52
51	147
52	36
53	12
62	24
63	94
64	18
65	410
66	24
74	17
75	24
76	26
77	100
78	39
79	11
89	56
90	21
91	999
92	197
102	19
103	42
104	67
115	19
152	17
165	33
166	12
178	24
179	18
182	465
183	76
