Mass spectrum: 1-(2,4-DIHYDROXYPHENYL)ETHANONE; EI-MS
Formula: C8H8O3
Exact mass: 152.04734
Instrument type: EI-MS
m/z	relative intensity
43	16
53	22
69	21
81	95
109	32
137	999
138	77
152	664
153	62
154	7
