Mass spectrum: 3,5-DI-TERT-BUTYL-4-HYDROXYBENZONITRILE; EI-MS
Formula: C15H21NO
Exact mass: 231.16231
Instrument type: EI-MS
m/z	relative intensity
15	22
18	22
27	37
28	29
29	73
39	58
41	135
43	17
51	20
53	17
55	33
57	116
63	15
65	15
77	31
85.5	16
86.5	25
89	17
91	20
100.5	14
102	11
103	17
104	11
115	36
116	44
117	14
127	18
128	22
129	14
130	25
132	15
140	28
141	15
142	17
144	31
146	16
153	14
154	11
156	56
157	11
158	27
160	43
172	74
173	12
174	12
186	11
188	206
189	30
200	38
216	999
217	157
218	13
231	220
232	41
