Mass spectrum: BENZOIC ACID; EI-MS
Formula: C7H6O2
Exact mass: 122.03678
Instrument type: EI-MS
m/z	relative intensity
39	37
40	41
41	9
43	19
44	37
45	27
50	15
51	158
52	54
55	13
57	14
60	15
65	27
66	18
73	16
76	36
77	643
78	91
94	33
104	12
105	993
106	75
121	12
122	999
123	74
124	8
