Mass spectrum: 4-CHLOROMETHYL-3,5-DIMETHYLISOXAZOLE; EI-MS
Formula: C6H8ClNO
Exact mass: 145.02944
Instrument type: EI-MS
m/z	relative intensity
26	28
27	28
28	28
38	2
39	41
40	17
41	31
42	13
43	396
49	10
50	11
51	3
52	26
53	22
54	17
61	1
66	55
67	28
68	629
69	6
76	11
110	999
111	71
145	18
146	13
147	58
