Mass spectrum: 2-METHOXYACETOPHENONE (D3); EI-MS
Formula: C9H10O2
Exact mass: 150.06808
Instrument type: EI-MS
m/z	relative intensity
15	28
18	33
38	23
39	46
43	156
50	29
51	39
52	30
53	15
62	17
63	102
64	54
65	22
76	12
77	24
78	195
79	32
82	28
92	206
93	18
106	25
108	40
120	25
135	11
136	38
137	13
138	999
139	88
153	413
154	228
155	137
156	13
