Mass spectrum: BUTYLTRIMETHYLSILANE; EI-MS
Formula: C7H18Si
Exact mass: 130.11778
Instrument type: EI-MS
m/z	relative intensity
27	22
28	16
29	32
31	40
39	11
41	11
42	15
43	95
44	35
45	104
53	10
55	17
57	22
58	44
59	429
60	36
61	17
71	10
72	22
73	999
74	92
75	38
85	10
86	11
87	15
101	15
115	226
116	28
117	13
130	35
