Mass spectrum: 3-HYDROXY-4-METHOXYBENZOIC ACID; EI-MS
Formula: C8H8O4
Exact mass: 168.04226
Instrument type: EI-MS
m/z	relative intensity
97	83
108	12
123	23
125	96
151	113
152	12
153	468
154	37
168	999
169	100
170	13
