Mass spectrum: N-ACETYL-META-TOLUIDINE; EI-MS
Formula: C9H11NO
Exact mass: 149.08406
Instrument type: EI-MS
m/z	relative intensity
42	12
43	198
50	14
51	33
52	23
53	18
63	18
65	32
77	88
78	31
79	54
80	16
89	10
90	13
91	37
104	14
106	368
107	999
108	87
149	358
150	37
