Mass spectrum: SYN-15-TERT-BUTYL-18-METHOXY-5,6,7,9-TETRAFLUORO-2,11-DITHIA(3.3)METACYCLOPHANE 2,2,11,11-TETRAOXIDE; EI-MS
Formula: C21H22F4O5S2
Exact mass: 494.08448
Instrument type: EI-MS
m/z	relative intensity
32	137
41	172
43	149
44	89
55	132
57	182
69	92
78	65
80	66
91	117
95	65
105	90
115	72
117	98
147	85
175	162
176	171
333	76
351	999
352	248
366	325
367	63
368	10
479	12
494	38
495	12
