Mass spectrum: METHYL 2,4-DIHYDROXY-6-METHYLBENZOATE; EI-MS
Formula: C9H10O4
Exact mass: 182.05791
Instrument type: EI-MS
m/z	relative intensity
15	10
27	18
28	11
29	15
38	12
39	75
40	18
41	38
43	21
50	23
51	45
52	18
53	64
55	36
62	12
63	21
64	11
65	82
66	116
67	47
69	119
77	30
79	13
81	11
91	11
93	27
94	142
95	30
109	25
121	76
122	544
123	51
150	999
151	423
152	41
153	11
182	530
183	87
184	17
