Mass spectrum: 2,4-DIAMINOPHENOL DIHYDROCHLORIDE; EI-MS
Name: AMIDOL
Formula: C6H8N2O.2CLH
Exact mass: 137.07149
Instrument type: EI-MS
m/z	relative intensity
18	43
28	32
35	31
36	275
37	10
38	90
39	16
40	15
41	39
42	24
48	11
51	23
52	91
53	31
54	19
62	37
67	23
68	21
78	38
79	136
80	31
95	129
96	80
123	282
124	999
125	76
