Mass spectrum: DIETHYL MALEATE; EI-MS
Formula: C8H12O4
Exact mass: 172.07356
Instrument type: EI-MS
m/z	relative intensity
15	25
26	103
27	237
28	4
29	326
30	11
31	19
43	4
44	11
45	56
47	14
53	2
54	97
55	70
56	14
71	5
72	28
81	11
82	70
99	999
100	120
101	14
125	14
126	22
127	373
128	106
143	50
145	17
