Mass spectrum: 3-(1-METHYLETHYL)-1H-2,1,3-BENZOTHIADIAZIN-4(3H)-ONE; EI-MS
Name: BENTAZON
Formula: C10H12N2O3S
Exact mass: 240.05686
Instrument type: EI-MS
m/z	relative intensity
36	27
39	38
41	32
42	20
43	17
51	19
52	24
62	10
63	58
64	74
65	42
76	15
77	19
78	16
79	17
90	62
91	60
92	204
93	18
105	28
106	21
118	94
119	793
120	198
121	13
133	14
134	15
138	13
154	17
161	343
162	38
181	17
182	241
183	29
184	17
198	999
199	150
200	64
201	11
225	263
226	31
227	17
240	186
241	21
242	10
