Mass spectrum: N-((E)-(3R)-3-BENZYLAMINO-5-PHENYL-4-PENTENOYL)BORNANE-10,2-SULTAM; EI-MS
Formula: C28H34N2O3S
Exact mass: 478.22901
Instrument type: EI-MS
m/z	relative intensity
291	40
307	31
309	13
323	30
325	19
371	999
372	258
373	69
374	21
387	569
388	159
389	47
476	16
478	32
