Mass spectrum: 1-(2-HYDROXY-4-((4-METHOXYPHENYL)METHOXY)PHENYL)ETHANONE; EI-MS
Formula: C16H16O4
Exact mass: 272.10486
Instrument type: EI-MS
m/z	relative intensity
77	16
78	13
91	12
121	999
122	89
272	17
273	3
