Mass spectrum: 4-DIACETYLAMINO-3-METHYLPHENYL ACETATE; EI-MS
Formula: C13H15NO4
Exact mass: 249.10011
Instrument type: EI-MS
m/z	relative intensity
28	40
39	20
42	20
43	52
52	20
65	20
66	20
67	2
77	40
94	30
120	20
122	14
123	999
124	100
146	20
148	2
149	20
164	20
165	770
166	8
207	400
208	40
249	100
250	10
