Mass spectrum: 2,4-DIBENZYL-1H-(1,3,5)TRIAZINO(1,2-A)QUINOLINE-1,3,6(2H,4H)-TRIONE; EI-MS
Formula: C25H19N3O3
Exact mass: 409.14264
Instrument type: EI-MS
m/z	relative intensity
39	114
40	103
41	127
42	26
43	125
44	633
45	73
50	22
51	68
52	18
53	13
54	11
55	81
56	35
57	73
60	18
62	13
63	66
64	24
65	462
66	33
67	29
68	15
69	70
70	70
71	35
73	18
75	15
76	37
77	132
78	44
79	13
81	33
82	15
83	35
84	14
85	18
88	26
89	112
90	105
91	999
92	312
93	18
95	17
96	14
97	26
98	11
102	51
103	39
104	68
105	61
111	13
114	15
115	37
116	24
129	79
130	37
132	323
133	79
143	15
144	16
146	59
157	90
158	20
165	15
180	31
181	62
186	33
204	13
218	13
219	29
220	15
231	11
232	26
247	81
248	30
275	35
276	48
277	202
278	46
304	40
305	24
318	118
319	35
339	33
381	17
392	36
408	40
409	921
410	387
