Mass spectrum: 3-BROMOPHENYLACETIC ACID; EI-MS
Formula: C8H7BrO2
Exact mass: 213.96294
Instrument type: EI-MS
m/z	relative intensity
39	32
41	8
44	7
45	23
51	16
53	7
63	29
64	17
65	67
77	67
78	25
79	31
80	9
82	8
89	238
90	387
91	738
92	57
107	33
135	7
136	6
143	9
145	8
169	999
170	97
171	986
172	99
174	6
214	831
215	75
216	809
217	72
218	6
