Mass spectrum: N,N'-DIPHENYLUREA; EI-MS
Formula: C13H12N2O
Exact mass: 212.09496
Instrument type: EI-MS
m/z	relative intensity
39	36
40	13
41	11
44	12
51	27
63	12
64	18
65	89
66	71
69	12
77	77
91	29
92	85
93	999
94	91
119	49
120	18
212	629
213	118
