Mass spectrum: 1,5-DIAMINOANTHRAQUINONE; EI-MS
Formula: C14H10N2O2
Exact mass: 238.07423
Instrument type: EI-MS
m/z	relative intensity
17	20
18	102
28	24
39	12
44	10
63	25
64	18
65	18
75	12
76	13
77	36
78	16
84	16
90	13
91	33
92	14
119	42
126	11
127	27
128	15
138	17
139	42
140	23
153	11
154	54
155	18
164	19
165	19
166	29
167	43
168	16
181	51
182	51
184	12
194	11
195	43
209	28
210	107
211	20
222	34
223	311
224	49
237	44
238	999
239	214
240	32
