Mass spectrum: 2-BROMOPENTANE; EI-MS
Formula: C5H11Br
Exact mass: 150.00441
Instrument type: EI-MS
m/z	relative intensity
26	13
27	91
28	43
29	132
39	98
40	21
41	203
42	108
43	970
44	23
53	21
55	210
56	12
69	15
70	42
71	999
72	50
