Mass spectrum: LYCORINE; EI-MS
Name: 3,12-DIDEHYDRO-9,10-(METHYLENEBIS(OXY))GALANTHAN-1,2-DIOL
Formula: C16H17NO4
Exact mass: 287.11576
Instrument type: EI-MS
m/z	relative intensity
65	56
82	58
89	52
91	6
96	68
111	132
119	83
135	51
147	131
226	999
227	921
228	161
240	57
250	147
252	67
256	71
268	282
269	86
270	93
286	291
287	465
288	86
