Mass spectrum: DIETHYLENEGLYCOL DIMETHACRYLATE; EI-MS
Formula: C12H18O5
Exact mass: 242.11542
Instrument type: EI-MS
m/z	relative intensity
39	80
40	30
41	260
43	3
44	30
45	230
58	20
68	2
69	790
70	60
75	20
86	25
87	40
88	30
89	150
100	9
101	60
112	60
113	999
114	8
143	30
