Mass spectrum: VALEROLACTAM; EI-MS
Name: PIPERIDIN-2-ONE
Formula: C5H9NO
Exact mass: 99.06841
Instrument type: EI-MS
m/z	relative intensity
29	47
30	999
31	19
39	2
40	20
41	390
42	502
43	45
44	34
53	10
54	23
55	25
56	172
57	25
58	107
60	1
69	18
70	313
71	150
81	1
82	32
85	11
97	11
98	26
99	488
100	118
