Mass spectrum: 2-METHYL-4-NITROANILINE; EI-MS
Name: 4-NITRO-O-TOLUIDINE
Formula: C7H8N2O2
Exact mass: 152.05858
Instrument type: EI-MS
m/z	relative intensity
17	48
18	157
27	42
28	90
29	11
30	46
37	14
38	38
39	117
40	18
41	47
42	39
46	21
50	68
51	141
52	122
53	98
54	55
55	12
61	10
62	27
63	69
64	25
65	64
66	61
67	37
74	24
75	26
76	33
77	572
78	157
79	467
80	69
89	21
91	20
92	10
93	64
94	165
95	13
104	128
105	66
106	656
107	75
121	11
122	45
135	11
136	12
152	999
153	88
