Mass spectrum: METHYLENECYCLOHEXANE; EI-MS
Formula: C7H12
Exact mass: 96.0939
Instrument type: EI-MS
m/z	relative intensity
15	32
18	15
26	40
27	286
28	97
29	112
38	52
39	520
40	127
41	325
42	65
50	51
51	99
52	50
53	259
54	374
55	356
56	30
62	17
63	35
65	76
66	74
67	744
68	524
69	38
77	65
78	20
79	121
80	22
81	999
82	75
83	15
91	31
95	74
96	449
97	37
