Mass spectrum: 5,5-DIMETHYL-1,3-CYCLOHEXANEDIONE; EI-MS
Name: DIMEDONE
Formula: C8H12O2
Exact mass: 140.08373
Instrument type: EI-MS
m/z	relative intensity
15	19
18	12
26	17
27	137
28	62
29	97
38	21
39	224
40	50
41	296
42	186
43	115
50	19
51	30
52	13
53	65
54	27
55	439
56	550
57	34
67	13
69	55
70	184
71	11
82	16
83	999
84	163
85	10
97	119
112	231
113	17
125	34
140	360
141	36
