Mass spectrum: 1,1-DIMETHYLSILACYCLOHEXANE; EI-MS
Formula: C7H16Si
Exact mass: 128.10213
Instrument type: EI-MS
m/z	relative intensity
28	15
43	17
58	25
59	227
60	18
71	25
72	108
73	19
85	643
86	78
87	30
99	15
100	47
111	15
113	999
114	125
115	39
128	361
129	45
130	14
