Mass spectrum: THIOBENZAMIDE; EI-MS
Formula: C7H7NS
Exact mass: 137.02992
Instrument type: EI-MS
m/z	relative intensity
18	16
27	22
28	18
32	13
37	18
38	28
39	61
44	35
45	17
49	16
50	161
51	308
52	76
60	126
61	12
62	17
63	32
64	51
65	30
66	13
68	16
69	31
73	16
74	71
75	61
76	128
77	784
78	183
79	17
91	26
93	11
96	12
102	16
103	207
104	549
105	594
106	42
108	25
109	46
110	23
119	16
120	12
121	602
122	73
123	15
128	29
134	11
135	655
136	172
137	999
138	101
139	42
