Mass spectrum: ISODIOTIGENIN TRIACETATE; EI-MS
Formula: C33H50O8
Exact mass: 574.35057
Instrument type: EI-MS
m/z	relative intensity
18	13
28	93
29	13
41	43
42	22
43	430
44	13
55	54
56	12
57	19
67	30
68	112
70	16
71	15
79	29
81	49
83	21
85	13
91	28
93	51
94	11
95	54
96	11
99	10
103	11
105	46
106	12
107	52
108	21
109	49
110	11
111	11
115	62
117	11
119	32
120	12
121	54
122	26
123	19
125	29
126	34
131	24
133	28
135	19
138	39
139	999
140	171
141	24
143	19
145	27
147	30
149	16
155	12
157	22
159	25
161	23
163	12
167	21
168	34
169	16
170	10
171	14
172	15
173	17
175	14
185	11
189	10
197	11
199	13
201	14
211	12
212	10
213	13
227	10
229	16
251	25
265	17
269	32
280	53
281	20
283	11
297	11
298	22
311	11
325	15
329	10
340	65
341	28
342	17
343	16
400	118
401	36
431	148
432	41
445	61
446	17
460	43
461	15
475	11
502	67
503	22
505	12
515	16
574	93
575	32
