Mass spectrum: PHENETHYL OCTANOATE; EI-MS
Formula: C16H24O2
Exact mass: 248.17763
Instrument type: EI-MS
m/z	relative intensity
27	30
29	36
39	22
41	94
42	21
43	80
51	14
55	39
57	166
65	18
77	35
78	19
91	46
103	29
104	999
105	247
106	15
127	32
