Mass spectrum: 2-ETHOXYCARBONYL-4-METHOXYCARBONYL-1-METHYL-5-PHENYLPYRROLIDINE (2,4-TRANS-4,5-CIS); EI-MS
Name: (4S,5R)-2-ETHOXYCARBONYL-4-METHOXYCARBONYL-1-METHYL-5-PHENYLPYRROLIDINE
Formula: C16H21NO4
Exact mass: 291.14706
Instrument type: EI-MS
m/z	relative intensity
38	16
40	12
41	110
42	133
55	18
57	14
58	43
77	21
82	25
91	43
103	14
104	12
109	11
115	31
116	17
117	32
118	21
121	12
128	16
129	27
131	18
132	12
143	31
144	12
157	11
158	145
159	37
186	96
187	14
218	999
219	148
220	15
260	26
291	53
