Mass spectrum: 2-METHOXYPHENYLACETIC ACID; EI-MS
Formula: C9H10O3
Exact mass: 166.06299
Instrument type: EI-MS
m/z	relative intensity
39	11
41	10
51	11
53	9
65	111
66	9
77	88
78	46
79	33
89	17
90	33
91	999
92	104
93	81
94	8
105	13
107	262
108	22
119	8
121	680
122	492
123	43
133	19
148	16
166	747
167	75
168	8
