Mass spectrum: 3,4 DIMETHYL-6-(2-METHYLPHENYL)-6-PHENYL-1,1-BIS(TRIMETHLSILYL)-1-SILACYCLOHEX-3-ENE; EI-MS
Formula: C26H40Si3
Exact mass: 436.24378
Instrument type: EI-MS
m/z	relative intensity
51	11
53	43
55	32
57	21
58	32
59	372
60	21
67	32
69	32
71	11
73	999
74	85
75	21
83	32
85	32
91	21
97	11
99	21
1010	21
105	53
109	11
111	11
1150	21
117	21
119	11
121	43
1230	21
125	32
127	11
129	21
1310	43
135	128
141	21
145	32
1490	32
155	17
159	23
165	17
1670	23
169	26
173	13
175	23
1770	15
178	23
179	32
18	11
1810	74
182	17
183	13
191	23
1930	21
195	13
197	15
199	13
2050	15
207	13
209	13
211	34
2120	11
213	43
221	11
222	49
2230	23
227	40
228	11
231	11
2350	15
247	11
255	23
261	15
2620	20
263	17
265	20
271	17
2770	17
280	11
281	13
285	15
2890	13
292	23
293	66
294	19
3070	19
320	23
321	53
322	17
3230	11
354	15
362	57
363	134
3640	53
365	21
394	21
436	53
4370	57
