Mass spectrum: 8-QUINOLYLMETHYL 2-METHYLBENZOATE; EI-MS
Formula: C18H15NO2
Exact mass: 277.11028
Instrument type: EI-MS
m/z	relative intensity
39	31
41	12
51	16
63	28
65	100
75	11
76	10
77	40
89	45
90	40
91	202
92	18
101	11
102	24
103	17
114	22
115	55
116	35
118	43
119	130
120	11
128	66
129	51
130	38
135	17
140	21
141	67
142	351
143	62
156	89
157	14
158	999
159	156
160	10
232	26
277	116
278	26
