Mass spectrum: 5-PARA-NITROPHENYL-3-PHENYLOXAZOLIDINE; EI-MS
Formula: C15H14N2O3
Exact mass: 270.10044
Instrument type: EI-MS
m/z	relative intensity
38	50
41	37
51	114
63	43
65	66
77	346
78	71
89	55
90	44
91	999
92	97
104	143
105	144
106	65
118	63
119	917
120	102
135	59
270	320
271	51
