Mass spectrum: PYRAZINE-N,N'-DIOXIDE; EI-MS
Formula: C4H4N2O2
Exact mass: 112.02728
Instrument type: EI-MS
m/z	relative intensity
16	22
17	29
25	12
26	97
27	30
28	116
29	89
30	283
37	12
39	40
40	93
41	94
42	12
46	61
51	26
52	109
53	35
55	19
56	25
67	11
68	11
80	14
85	15
95	14
96	70
112	999
113	124
