Mass spectrum: 2-AMINOPYRIDINE; EI-MS
Formula: C5H6N2
Exact mass: 94.0531
Instrument type: EI-MS
m/z	relative intensity
41	144
42	18
43	19
44	11
47	51
50	34
51	56
52	36
53	10
54	14
57	10
62	13
63	34
64	15
65	21
66	108
67	490
68	33
78	38
92	11
93	50
94	999
95	65
