Mass spectrum: (E.E)-(1'R,2'S,5'R)-8'-BETA-NAPHTHYLMENTHYL-5-PHENYL-2,4-PENTADIENOATE; EI-MS
Formula: C31H34O2
Exact mass: 438.25588
Instrument type: EI-MS
m/z	relative intensity
17	35
18	118
28	24
41	47
44	12
55	12
77	12
81	12
95	24
115	12
127	24
128	82
129	106
130	12
141	129
142	12
152	12
153	24
154	24
155	35
157	106
158	12
165	12
167	12
168	200
169	999
170	165
171	12
174	19
175	12
249	19
264	52
265	14
269	61
270	16
438	108
439	37
