Mass spectrum: N,N-DIMETHYL-PARA-TOLUIDINE; EI-MS
Formula: C9H13N
Exact mass: 135.1048
Instrument type: EI-MS
m/z	relative intensity
42	21
44	10
65	16
77	1
91	84
92	24
93	13
105	1
118	52
119	94
120	50
121	1
132	10
133	23
134	966
135	999
136	102
