Mass spectrum: 4,6-DIFORMYL-2,5-DIMETHOXYTROPONE; EI-MS
Formula: C11H10O5
Exact mass: 222.05282
Instrument type: EI-MS
m/z	relative intensity
39	428
41	316
43	386
50	280
51	469
52	292
53	999
55	243
63	466
64	750
66	391
77	385
79	357
80	236
93	295
95	664
107	293
121	277
123	331
135	291
150	448
152	388
179	330
191	455
192	62
193	189
194	86
195	40
207	847
208	99
209	34
221	55
222	465
223	92
