Mass spectrum: 2-METHYLCYCLOPENTANONE-D3(METHYL); EI-MS
Formula: C6H10O
Exact mass: 98.07316
Instrument type: EI-MS
m/z	relative intensity
28	169
29	31
41	85
42	113
43	178
44	205
45	999
46	140
55	485
56	215
57	82
58	213
59	131
71	136
72	451
73	285
74	139
81	15
82	56
83	144
84	133
100	58
101	766
102	66
