Mass spectrum: 2',4'-DIHYDROXYACETOPHENONE; EI-MS
Formula: C8H8O3
Exact mass: 152.04734
Instrument type: EI-MS
m/z	relative intensity
18	17
27	26
38	11
39	29
42	12
43	70
44	10
50	14
51	30
52	18
53	40
55	18
62	18
63	18
69	58
77	13
81	87
108	13
109	29
123	12
137	999
138	79
152	531
153	49
