Mass spectrum: DIMETHYL SULFATE; EI-MS
Formula: C2H6O4S
Exact mass: 125.99868
Instrument type: EI-MS
m/z	relative intensity
45	235
48	40
50	17
61	13
64	26
65	82
66	222
68	12
78	43
79	102
81	15
95	999
96	541
97	80
98	30
125	91
126	73
127	10
