Mass spectrum: GLYCYLGLYCINE; EI-MS
Formula: C4H8N2O3
Exact mass: 132.05349
Instrument type: EI-MS
m/z	relative intensity
18	22
27	13
28	160
29	52
30	999
31	42
42	35
43	25
44	11
45	29
56	34
59	12
71	17
74	13
89	12
104	34
114	18
132	17
