Mass spectrum: 7-(1,3-DIOXAN-2-YL)HEPTANAL; EI-MS
Formula: C11H20O3
Exact mass: 200.14124
Instrument type: EI-MS
m/z	relative intensity
53	14
54	17
55	70
56	11
57	85
58	31
59	131
67	27
68	15
69	40
71	11
79	11
81	42
83	12
87	999
88	46
95	43
96	14
97	11
102	10
113	20
115	12
124	11
199	40
200	12
