Mass spectrum: 8-AMINOQUINOLINE; EI-MS
Name: 8-QUINOLINAMINE
Formula: C9H8N2
Exact mass: 144.06875
Instrument type: EI-MS
m/z	relative intensity
18	37
28	20
38	14
39	35
50	16
51	20
52	20
58	11
59	65
62	23
63	53
64	23
65	16
71	23
72	71
75	10
76	14
78	10
88	16
89	114
90	105
91	17
114	11
115	21
116	104
117	333
118	43
142	31
143	87
144	999
145	163
