Mass spectrum: 2,4,6-TRIBROMOPHENOL; EI-MS
Formula: C6H3Br3O
Exact mass: 327.7734
Instrument type: EI-MS
m/z	relative intensity
41	16
43	12
45	18
46	27
53	78
57	23
60	39
61	173
62	307
63	137
70	51
71	60
73	25
74	38
79	33
80	23
81	30
82	24
85	21
90	55
91	61
110	55
111	85
112	53
116	16
117	22
118	13
119	18
124	13
125	35
126	16
141	190
142	38
143	174
144	23
164	23
165	60
166	62
167	24
169	22
170	61
171	27
172	60
219	68
220	46
221	109
222	75
223	67
233	13
224	41
235	26
247	59
248	13
249	97
251	54
250	32
300	16
252	13
302	16
313	16
315	18
327	353
328	30
329	999
330	75
331	973
332	73
333	334
334	24
