Mass spectrum: SPIRO(4.5)SILADECANE; EI-MS
Formula: C9H18Si
Exact mass: 154.11778
Instrument type: EI-MS
m/z	relative intensity
57	19
70	70
71	43
83	88
84	70
85	63
96	28
97	177
98	691
99	106
100	38
111	44
112	31
113	15
125	28
126	999
127	143
128	52
154	508
155	86
156	30
