Mass spectrum: 5,5'-BIS(PENTAMETHYLDISILANYL)-2,2'-BITHIOPHENE; EI-MS
Formula: C18H34S2Si4
Exact mass: 426.1179
Instrument type: EI-MS
m/z	relative intensity
40	17
43	56
44	37
45	188
46	12
55	13
59	54
69	11
73	999
75	58
83	81
85	11
91	31
97	11
115	58
131	64
132	14
133	17
145	23
147	19
165	40
173	17
175	13
321	14
336	26
353	44
354	16
355	11
426	19
428	11
