Mass spectrum: 2,4-DIACETOXY-5-HYDROXYTROPONE; EI-MS
Formula: C11H10O6
Exact mass: 238.04774
Instrument type: EI-MS
m/z	relative intensity
39	14
41	19
42	69
43	999
44	33
50	11
51	13
53	11
54	20
55	17
69	32
82	17
97	17
125	12
126	137
153	10
154	461
155	37
196	83
197	12
238	60
