Mass spectrum: 2-METHYLBENZOXAZOLE; EI-MS
Formula: C8H7NO
Exact mass: 133.05276
Instrument type: EI-MS
m/z	relative intensity
15	21
26	30
27	35
38	27
39	79
40	49
42	14
43	18
44	18
51	33
52	54
53	39
54	18
61	18
62	53
63	244
64	214
65	57
66	12
75	10
76	18
77	30
78	144
79	30
90	12
91	19
92	84
93	31
104	144
105	150
106	14
132	31
133	999
134	96
