Mass spectrum: 3-HYDROXY-4-METHOXYBENZALDEHYDE; EI-MS
Formula: C8H8O3
Exact mass: 152.04734
Instrument type: EI-MS
m/z	relative intensity
27	15
52	21
53	34
55	13
65	40
67	15
77	25
80	19
81	164
93	13
95	13
108	49
109	133
123	97
124	14
136	12
137	45
151	816
152	999
153	92
154	10
