Mass spectrum: (E)-3-PARA-NITROPHENYLMETHYLENE-1-PARA-TOLYL-2,5-PYRROLIDINEDIONE; EI-MS
Formula: C18H14N2O4
Exact mass: 322.09536
Instrument type: EI-MS
m/z	relative intensity
39	62
41	65
43	76
44	99
55	62
57	92
62	73
64	72
76	138
89	89
91	81
103	68
104	79
105	83
107	60
113	66
114	99
115	318
131	132
132	106
133	111
160	71
161	848
162	86
292	71
322	999
323	205
