Mass spectrum: SUCCINIC ACID; EI-MS
Formula: C4H6O4
Exact mass: 118.02661
Instrument type: EI-MS
m/z	relative intensity
14	25
15	22
18	33
19	19
25	21
26	161
27	548
28	575
29	340
30	91
31	54
41	14
42	92
43	75
44	38
45	808
46	87
47	33
53	40
54	15
55	999
56	256
57	25
63	10
71	15
72	180
73	662
74	899
75	33
100	615
101	469
102	22
119	18
