Mass spectrum: METHYL 2,3-DIPHENYL-1-PYRROLINE-4-CARBOXYLATE; EI-MS
Formula: C18H17NO2
Exact mass: 279.12593
Instrument type: EI-MS
m/z	relative intensity
38	27
51	45
63	22
65	22
77	139
78	31
89	40
90	45
91	116
102	19
103	57
104	105
105	62
115	85
116	51
117	999
118	113
131	36
133	78
144	38
145	40
174	19
176	101
177	41
191	21
192	66
218	18
219	36
220	147
221	48
279	156
280	49
295	80
296	20
