Mass spectrum: 1,3-DIMETHYL-1,9A-DIHYDRO-2H-PYRIMIDO(1,2-A)(1,3,5)TRIAZINE-2,4,8(3H,9H)-TRIONE; EI-MS
Formula: C8H10N4O3
Exact mass: 210.07529
Instrument type: EI-MS
m/z	relative intensity
38	10
39	37
40	427
41	221
42	413
43	70
44	123
51	12
52	42
53	89
54	39
55	87
56	294
57	159
58	355
59	13
67	83
68	659
69	270
70	109
71	20
79	20
81	17
82	33
83	88
84	131
85	20
87	11
91	11
95	160
96	830
97	402
98	150
99	13
109	73
110	46
111	22
113	10
123	22
124	31
125	54
141	24
142	17
152	485
153	182
154	18
167	17
181	22
182	22
208	34
209	999
210	574
211	81
