Mass spectrum: 2-METHYL-6-METHYLENE-8-TRIMETHYLSILYL-2-OCTENE; EI-MS
Formula: C13H26Si
Exact mass: 210.18038
Instrument type: EI-MS
m/z	relative intensity
39	22
41	212
42	11
43	26
44	14
45	77
53	21
55	15
58	12
59	83
67	24
68	13
70	26
71	10
72	18
73	999
74	116
75	51
77	12
79	12
83	14
85	24
93	41
95	10
97	10
99	19
101	18
107	15
108	25
109	67
111	15
113	17
121	16
127	20
136	78
137	10
139	31
141	75
142	12
153	12
167	54
210	40
