Mass spectrum: 1,2-BIS(TRIMETHYLSILYL)ETHANE (1,1,2,2-D4); EI-MS
Formula: C8H22Si2
Exact mass: 174.126
Instrument type: EI-MS
m/z	relative intensity
27	19
28	52
29	31
31	78
32	13
43	73
44	29
45	151
46	18
47	10
57	13
58	105
59	58
60	57
72	19
73	999
74	109
75	36
88	151
89	23
90	230
91	23
92	10
115	13
131	109
132	18
133	10
163	134
164	26
165	13
178	110
179	23
180	10
