Mass spectrum: 1,3-DIHYDROXYNAPHTHALENE; EI-MS
Name: NAPHTHORESORCINOL
Formula: C10H8O2
Exact mass: 160.05243
Instrument type: EI-MS
m/z	relative intensity
17	26
18	118
28	34
39	15
50	16
51	41
62	16
63	30
65	11
66	13
69	20
74	14
75	14
76	17
77	82
78	20
80	52
89	26
90	59
91	39
102	33
103	81
104	31
105	12
114	21
115	32
118	75
119	15
131	281
132	86
138	15
159	21
160	999
161	108
