Mass spectrum: DIMETHYL MALEATE; EI-MS
Formula: C6H8O4
Exact mass: 144.04226
Instrument type: EI-MS
m/z	relative intensity
15	36
54	12
55	12
59	10
82	16
85	56
113	999
114	9
115	12
144	24
