Mass spectrum: CIS-5-(6-FORMYLHEXYL)-TRANS-4-(CIS-1-OCTENYL)-2,REF.-3-DIPHENYLISOXAZOLIDINE; EI-MS
Name: (3S,4S,5R)-5-(6-FORMYLHEXYL)-4-(1-OCTENYL)-2,3-DIPHENYLISOXAZOLIDINE
Formula: C30H41NO2
Exact mass: 447.31373
Instrument type: EI-MS
m/z	relative intensity
41	277
43	273
55	313
67	331
69	245
77	451
81	310
91	626
92	342
95	321
104	430
105	519
168	370
169	308
180	632
181	755
182	634
196	719
197	746
198	925
199	654
220	283
447	999
