Mass spectrum: 4,11,17,24-TETRAOXOOCTACYCLO(12.12.1.0(3,12).0(3,25).0(5,10).0(12,16).0(16,25).0(18,23))HEPTACOSA-5,7,9,18,20,22-HEXAENE; EI-MS
Formula: C27H20O4
Exact mass: 408.13616
Instrument type: EI-MS
m/z	relative intensity
28	79
76	63
77	70
105	80
152	63
165	81
181	67
186	60
187	55
209	59
210	86
211	57
222	70
223	96
224	208
408	999
409	287
410	88
