Mass spectrum: 4-ETHYLPHENOL; EI-MS
Formula: C8H10O
Exact mass: 122.07316
Instrument type: EI-MS
m/z	relative intensity
27	34
39	52
50	20
51	32
52	18
53	30
55	14
62	14
63	37
65	35
66	12
77	131
78	33
79	18
91	44
93	10
94	15
103	16
107	999
108	78
121	33
122	332
123	33
