Mass spectrum: PROPYL LACTATE; EI-MS
Formula: C6H12O3
Exact mass: 132.07864
Instrument type: EI-MS
m/z	relative intensity
15	19
26	12
27	111
28	2
29	35
31	62
39	21
41	9
42	25
43	273
44	14
45	999
46	23
56	16
59	28
75	5
89	12
132	5
