Mass spectrum: 1-METHYLSILACYCLOHEXANE (1-D); EI-MS
Formula: C6H14Si
Exact mass: 114.08648
Instrument type: EI-MS
m/z	relative intensity
28	11
41	10
43	58
44	41
45	54
46	64
57	13
58	268
59	446
60	89
61	18
68	11
69	16
70	21
71	118
72	390
73	103
74	56
84	35
85	156
86	148
87	999
88	104
89	39
97	35
98	64
99	23
100	259
101	26
112	70
113	199
114	41
115	666
116	73
117	21
