Mass spectrum: ORTHO-CHLORONITROBENZENE; EI-MS
Formula: C6H4ClNO2
Exact mass: 156.99306
Instrument type: EI-MS
m/z	relative intensity
27	27
28	48
30	592
37	49
38	61
39	83
46	44
49	33
50	344
51	175
52	13
53	11
61	46
62	29
63	94
64	29
72	15
73	117
74	184
75	999
76	160
77	12
84	33
85	108
86	17
87	36
99	680
100	39
101	218
111	704
112	55
113	222
114	16
125	15
127	342
128	27
129	108
141	214
142	17
143	70
157	684
158	106
159	222
160	34
