Mass spectrum: 5-METHYL-2,5-DIPHENYL-2-OXAZOLINE; EI-MS
Formula: C16H15NO
Exact mass: 237.11536
Instrument type: EI-MS
m/z	relative intensity
38	37
40	20
42	65
50	33
51	113
52	17
55	25
57	13
63	26
65	21
75	23
76	272
77	34
78	12
89	45
90	41
91	89
99	23
103	35
104	16
105	102
115	21
116	30
117	999
118	106
119	18
127	14
132	17
237	90
238	16
