Mass spectrum: ETHYL LEVULINATE; EI-MS
Name: BETA-ACETYLPROPIONIC ACID ETHYL ESTER
Formula: C7H12O3
Exact mass: 144.07864
Instrument type: EI-MS
m/z	relative intensity
27	12
28	37
29	141
30	2
42	12
43	999
44	31
45	14
55	80
56	86
57	123
58	3
61	18
71	129
72	25
73	16
74	325
75	92
81	13
84	2
89	13
98	172
99	963
100	7
101	245
102	307
103	25
116	2
129	331
130	31
144	184
145	18
