Mass spectrum: 1-ADAMANTANECARBOXYLIC ACID; EI-MS
Formula: C11H16O2
Exact mass: 180.11503
Instrument type: EI-MS
m/z	relative intensity
27	24
29	18
39	46
41	58
45	41
51	10
53	24
55	28
65	21
67	40
69	11
77	61
78	16
79	167
80	18
81	46
91	59
92	27
93	148
94	13
105	14
107	63
135	999
136	113
180	95
181	15
