Mass spectrum: ANTI- AND SYN-5,6,7,9-TETRAFLUORO-14,15,16,18-TETRAMETHYL-2,11-DITHIA(3,3)METACYCLOPHANE; EI-MS
Formula: C20H20F4S2
Exact mass: 400.09425
Instrument type: EI-MS
m/z	relative intensity
41	109
43	269
44	554
57	97
91	187
105	92
128	87
129	124
158	141
159	120
175	119
176	87
190	999
191	133
192	83
193	23
199	24
233	25
381	30
399	284
400	62
401	30
