Mass spectrum: 2-(TRIMETHYLSILYL)METHYL-1-PHENYL-3-BUTEN-1-OL; EI-MS
Formula: C14H22OSi
Exact mass: 234.14399
Instrument type: EI-MS
m/z	relative intensity
43	17
44	12
45	63
51	14
58	15
59	74
73	267
74	28
75	22
77	91
78	16
89	203
90	23
91	67
97	15
105	29
115	13
121	999
122	133
128	16
129	15
