Mass spectrum: 1,4-BIS(TRIMETHYLSILYL)BENZENE; EI-MS
Formula: C12H22Si2
Exact mass: 222.126
Instrument type: EI-MS
m/z	relative intensity
53	35
55	56
56	14
57	63
58	183
59	127
73	999
74	70
75	28
83	21
91	14
93	28
105	35
107	21
118	14
119	99
120	14
121	21
131	14
133	42
134	70
135	35
148	14
149	35
161	44
163	13
207	74
