Mass spectrum: TROPIC ACID; EI-MS
Name: 2-HYDROXYMETHYLPHENYLACETIC ACID
Formula: C9H10O3
Exact mass: 166.06299
Instrument type: EI-MS
m/z	relative intensity
43	46
44	11
45	21
55	2
56	17
57	32
58	18
60	2
65	15
69	20
70	15
71	2
73	12
77	58
78	27
79	7
81	11
83	13
84	10
85	1
89	21
90	180
91	515
92	8
93	11
97	10
103	112
104	23
105	27
107	23
118	558
119	7
120	16
121	28
135	17
136	999
137	131
138	11
147	10
148	2
149	15
166	9
167	5
