Mass spectrum: LEVULINIC ACID; EI-MS
Name: BETA-ACETYLPROPIONIC ACID
Formula: C5H8O3
Exact mass: 116.04734
Instrument type: EI-MS
m/z	relative intensity
27	16
28	32
29	62
42	1
43	999
44	28
45	28
55	7
56	481
57	28
61	24
71	3
73	80
74	26
99	26
101	5
116	103
117	10
