Mass spectrum: 4-(2,4-DIFLUOROBENZOYL)-3-PHENYL-5-ISOXAZOLONE; EI-MS
Formula: C16H9F2NO3
Exact mass: 301.05505
Instrument type: EI-MS
m/z	relative intensity
39	18
50	22
51	43
52	14
62	16
63	98
64	13
74	14
75	14
76	34
77	44
89	39
93	14
94	12
102	122
103	45
104	12
112	19
113	269
114	94
116	47
123	29
132	10
140	13
141	999
142	442
144	19
301	34
