Mass spectrum: PHTHALIC ACID; EI-MS
Name: 1,2-BENZENEDICABOXYLIC ACID
Formula: C8H6O4
Exact mass: 166.02661
Instrument type: EI-MS
m/z	relative intensity
17	18
18	51
26	32
27	65
28	15
29	38
37	109
38	147
39	356
44	14
45	265
47	17
49	68
50	588
51	294
52	75
53	88
55	10
61	29
62	31
63	66
64	55
65	423
66	63
73	57
74	264
75	174
76	517
77	421
78	63
92	62
93	119
94	50
104	346
105	999
106	79
121	55
122	895
123	73
148	45
149	198
150	19
166	77
167	38
