Mass spectrum: PHENETHYL VALERATE; EI-MS
Formula: C13H18O2
Exact mass: 206.13068
Instrument type: EI-MS
m/z	relative intensity
14	13
27	54
29	106
39	43
41	91
42	16
43	13
50	10
51	29
55	24
57	221
63	11
65	34
77	53
78	29
79	34
85	141
91	60
92	11
103	35
104	999
105	203
106	13
