Mass spectrum: SUCCINIMIDE; EI-MS
Formula: C4H5NO2
Exact mass: 99.03203
Instrument type: EI-MS
m/z	relative intensity
41	40
42	23
43	88
44	3
45	17
54	11
55	71
56	999
57	80
58	35
60	27
69	3
70	23
71	31
73	12
81	1
83	15
84	11
85	23
97	1
98	10
99	713
100	37
