Mass spectrum: SPIRO(3.5)SILANONANE; EI-MS
Formula: C8H16Si
Exact mass: 140.10213
Instrument type: EI-MS
m/z	relative intensity
27	40
28	46
29	55
31	25
32	12
39	49
41	53
42	117
43	329
44	60
45	80
53	50
54	23
55	169
56	113
57	72
58	68
59	30
66	18
67	47
68	16
69	100
70	112
71	152
72	20
81	28
82	70
83	252
84	999
85	122
86	42
95	29
96	14
97	194
98	79
99	109
100	24
110	16
111	60
112	899
113	119
114	38
140	438
141	68
142	23
