Mass spectrum: 2,3-PYRIDINEDICARBOXYLIC ACID; EI-MS
Name: QUINOLINIC ACID
Formula: C7H5NO4
Exact mass: 167.02186
Instrument type: EI-MS
m/z	relative intensity
15	32
18	12
26	29
27	17
28	28
29	24
37	17
38	27
39	75
40	11
41	10
42	29
43	214
44	184
45	247
49	38
50	174
51	218
52	154
53	31
60	174
66	39
67	27
75	33
76	67
77	305
78	289
79	256
80	16
94	57
95	18
105	492
106	192
107	13
122	12
123	999
124	87
150	14
168	16
