Mass spectrum: SILACYCLOPENTANE; EI-MS
Formula: C4H10Si
Exact mass: 86.05518
Instrument type: EI-MS
m/z	relative intensity
28	15
29	12
30	10
43	150
44	29
45	24
55	26
56	50
57	73
58	999
59	94
60	40
71	26
83	18
84	34
85	69
86	280
87	31
88	15
