Mass spectrum: PARA-HYDROXYBENZOIC ACID; EI-MS
Formula: C7H6O3
Exact mass: 138.03169
Instrument type: EI-MS
m/z	relative intensity
27	17
29	25
37	16
38	35
39	136
45	44
50	16
51	11
53	31
55	17
61	12
62	27
63	85
64	25
65	170
66	19
81	17
92	16
93	70
95	12
105	15
110	16
121	999
122	103
138	386
139	247
140	21
