Mass spectrum: METHYLCYCLOHEXANE; EI-MS
Formula: C7H14
Exact mass: 98.10955
Instrument type: EI-MS
m/z	relative intensity
29	22
41	175
42	201
43	4
54	22
55	541
56	258
57	4
67	22
68	87
69	201
70	22
71	13
82	166
83	999
84	7
97	26
98	485
99	44
