Mass spectrum: 1,5-BIS(ETHOXYMETHYLPHENYLSILYL)NAPHTHALENE; EI-MS
Formula: C28H32O2Si2
Exact mass: 456.19408
Instrument type: EI-MS
m/z	relative intensity
104	32
105	21
137	21
155	21
164	32
165	242
195	32
215	11
225	21
245	21
247	32
357	32
273	11
275	42
276	11
277	32
290	32
291	42
301	42
305	95
306	32
307	11
319	42
320	11
321	21
397	32
441	558
442	221
443	74
456	999
457	411
