Mass spectrum: PHENYL(1-PHENYLETHYL)BIS(TRIMETHYLSILYL)SILANE; EI-MS
Formula: C20H32Si3
Exact mass: 356.18118
Instrument type: EI-MS
m/z	relative intensity
51	14
53	35
55	21
57	35
58	14
59	197
69	21
73	999
74	70
75	28
77	35
79	35
83	14
85	14
91	21
93	14
95	14
99	14
101	14
102	14
103	21
105	218
106	21
107	63
109	14
115	14
119	21
121	113
122	14
131	63
132	14
133	21
135	725
136	85
137	21
145	42
146	35
147	28
161	21
163	35
175	14
177	85
179	28
191	56
193	21
206	86
207	20
251	68
252	21
356	25
