Mass spectrum: 9,10-DIHYDROANTHRACENE; EI-MS
Formula: C14H12
Exact mass: 180.0939
Instrument type: EI-MS
m/z	relative intensity
27	18
39	28
50	24
51	38
62	17
63	55
74	23
75	34
76	78
77	20
83	23
86	11
87	21
88	50
89	132
90	35
102	12
115	19
126	19
127	13
128	14
139	23
150	33
151	60
152	94
153	19
163	10
165	186
166	28
175	13
176	105
177	72
178	479
179	860
180	999
181	144
182	12
