Mass spectrum: 1,1-DIMETHOXY-1,2-DIPHENYL-2-OXOETHANE; EI-MS
Formula: C16H16O3
Exact mass: 256.10994
Instrument type: EI-MS
m/z	relative intensity
41	20
43	20
51	50
55	2
57	20
59	50
77	210
91	9
92	20
105	320
106	20
151	999
152	100
225	40
