Mass spectrum: 1,4-DIACETYLBENZENE; EI-MS
Formula: C10H10O2
Exact mass: 162.06808
Instrument type: EI-MS
m/z	relative intensity
15	23
39	14
42	13
43	261
50	54
51	33
62	16
63	26
65	20
74	31
75	33
76	91
77	69
89	30
90	25
91	192
92	14
104	67
105	19
119	147
120	18
147	999
148	99
149	14
162	323
163	47
