Mass spectrum: 4-METHOXYCARBONYL-6-ETHYL-5-PHENYL-2-(PARA-TOLYL)PERHYDROPYRROLO(3,4-C)PYRROLE-1,3-DIONE (3A,4-CIS-6,6A-TRANS); EI-MS
Name: (4S,6R)-4-METHOXYCARBONYL-6-ETHYL-5-PHENYL-2-(PARA-TOLYL)PERHYDROPYRROLO(3,4-C)PYRROLE-1,3-DIONE
Formula: C23H24N2O4
Exact mass: 392.17361
Instrument type: EI-MS
m/z	relative intensity
38	46
40	66
42	36
51	50
55	30
60	54
66	32
76	215
77	69
91	72
104	147
105	38
115	81
116	42
117	49
130	41
132	66
133	122
143	216
144	207
145	32
156	89
158	41
170	100
172	564
173	86
202	133
333	999
334	251
335	36
363	175
364	41
392	156
393	45
