Mass spectrum: ETHYL 3-METHYL-2-BUTENOATE; EI-MS
Name: ETHYL SENECIOLATE
Formula: C7H12O2
Exact mass: 128.08373
Instrument type: EI-MS
m/z	relative intensity
26	13
27	160
28	30
29	23
32	11
38	12
39	154
40	2
41	43
42	18
43	40
45	1
50	11
51	18
53	67
54	6
55	353
56	30
57	16
59	2
67	12
82	279
83	999
84	6
85	160
100	223
101	13
113	3
128	323
129	26
