Mass spectrum: 3-CYCLOHEXENE-1-CARBOXYLIC ACID METHYL ESTER; EI-MS
Formula: C8H12O2
Exact mass: 140.08373
Instrument type: EI-MS
m/z	relative intensity
15	105
27	119
29	53
30	10
31	18
38	14
39	144
40	18
41	127
42	10
43	27
45	11
50	24
51	51
52	32
53	127
54	116
55	67
59	57
61	11
65	28
66	37
67	40
68	13
69	12
74	16
77	84
78	27
79	345
80	999
81	849
82	58
83	14
97	23
98	13
107	14
108	479
109	176
110	14
111	37
112	11
125	20
140	272
141	93
