Mass spectrum: 3,7,11,15-TETRAMETHYL-2,6,10,14-HEXADECATETRAENIC ACID ETHYL ESTER; EI-MS
Formula: C22H36O2
Exact mass: 332.27153
Instrument type: EI-MS
m/z	relative intensity
27	19
28	78
29	51
32	12
39	33
41	249
43	66
53	76
54	20
55	101
57	19
65	14
67	120
68	152
69	999
70	59
71	25
77	48
79	82
80	32
81	502
82	151
83	51
91	75
92	19
93	211
94	43
95	180
96	17
97	12
99	25
100	70
105	67
107	167
108	47
109	120
113	17
119	50
121	356
122	111
123	182
124	23
125	17
128	472
129	41
133	58
134	40
135	222
136	253
137	179
139	18
141	22
147	87
148	26
149	93
150	27
153	52
161	53
162	18
163	16
175	49
177	26
179	13
181	14
189	110
190	19
191	24
203	15
204	29
205	41
217	18
287	51
289	20
332	61
