Mass spectrum: CYCLO-GLYCYLGLYCINE(3,3,6,6-D4); EI-MS
Formula: C4H6N2O2
Exact mass: 114.04293
Instrument type: EI-MS
m/z	relative intensity
18	86
30	19
31	89
32	270
33	155
34	8
43	8
44	27
45	82
46	212
59	15
60	53
61	3
62	10
73	20
74	180
75	561
76	33
88	7
89	12
90	59
115	30
116	161
117	322
118	999
119	87
120	9
