Mass spectrum: BUTYL 4-HYDROXYBENZOATE; EI-MS
Formula: C11H14O3
Exact mass: 194.09429
Instrument type: EI-MS
m/z	relative intensity
27	45
29	40
38	11
39	101
41	53
43	11
53	20
55	16
56	32
63	31
64	25
65	191
66	17
92	28
93	111
94	16
95	13
120	15
121	999
122	83
138	840
139	126
140	13
151	10
194	65
