Mass spectrum: 2'-HYDROXY-3',4'-DIMETHOXYACETOPHENONE; EI-MS
Formula: C10H12O4
Exact mass: 196.07356
Instrument type: EI-MS
m/z	relative intensity
43	84
65	16
82	49
92	24
93	16
95	12
107	28
108	13
110	21
120	82
121	23
123	27
133	11
135	145
136	46
137	45
138	38
148	108
149	41
150	39
151	15
153	193
154	17
163	168
164	17
165	26
166	45
167	28
177	14
178	13
181	999
182	101
183	13
196	951
197	108
198	14
