Mass spectrum: TETRAMETHOXYMETHANE; EI-MS
Formula: C5H12O4
Exact mass: 136.07356
Instrument type: EI-MS
m/z	relative intensity
14	163
15	846
16	48
29	414
30	81
31	81
45	656
46	24
47	11
59	549
60	16
61	117
74	18
105	999
106	49
