Mass spectrum: 2-(3-(1-METHYLETHYLAMINO)-2-HYDROXYPROPYLOXYETHYL)-2,5,7,8-TETRAMETHYL-6-(3-PYRIDINECARBOXY)-3,4-DIHYDRO-2HBENZOPYRAN; EI-MS
Formula: C27H38N2O5
Exact mass: 470.27807
Instrument type: EI-MS
m/z	relative intensity
27	18
28	49
29	14
30	140
39	12
41	91
42	20
43	124
44	22
51	35
53	17
55	41
56	66
57	25
58	77
67	16
69	64
70	26
72	405
73	16
74	14
77	16
78	211
79	109
80	18
81	44
84	17
91	24
93	34
98	94
100	75
105	22
106	963
108	161
114	25
116	32
119	16
121	59
122	24
123	24
124	56
130	18
135	55
136	54
137	26
138	16
144	132
145	18
149	25
151	15
152	15
161	21
162	45
163	28
164	430
165	342
166	40
173	14
174	18
175	33
176	29
177	174
178	33
179	81
180	19
184	20
187	18
188	21
189	88
190	42
191	23
197	20
203	165
204	86
205	86
207	91
214	20
215	21
216	15
217	53
219	20
221	305
222	45
231	278
232	608
233	153
234	18
237	25
239	223
240	35
250	33
251	30
270	46
289	20
292	22
307	135
308	36
310	15
337	69
338	23
354	29
355	17
364	14
398	24
452	23
455	23
470	999
471	320
472	60
