Mass spectrum: 2,5-DIMETHOXYBENZOIC ACID METHYL ESTER; EI-MS
Formula: C10H12O4
Exact mass: 196.07356
Instrument type: EI-MS
m/z	relative intensity
65	10
77	41
79	14
92	17
93	13
95	19
107	79
108	21
109	33
110	16
121	10
122	39
123	48
125	73
135	94
136	35
137	19
149	12
150	36
151	97
152	10
153	52
163	352
164	52
165	521
166	58
167	27
179	16
181	272
182	32
196	999
197	111
198	14
