Mass spectrum: 7-HYDROXY-PREGNA-1,4-DIEN-3-ONE-20-CARBALDEHYDE; EI-MS
Formula: C22H30O3
Exact mass: 342.21949
Instrument type: EI-MS
m/z	relative intensity
29	49
39	20
41	83
43	45
53	35
55	103
57	27
65	20
67	61
69	50
77	60
79	75
81	78
83	28
91	117
92	40
93	140
94	30
95	86
105	83
106	37
107	102
108	54
109	63
115	22
117	36
118	32
119	62
120	32
121	255
122	999
123	120
124	25
129	25
131	77
132	35
133	129
134	58
135	105
136	20
143	36
144	18
145	105
146	39
147	80
148	22
149	22
150	230
151	260
152	36
157	29
158	23
159	70
160	262
161	96
162	22
163	44
171	55
172	40
173	88
174	54
175	50
185	38
186	14
187	16
189	20
203	21
225	27
251	25
267	31
268	54
324	71
342	16
