Mass spectrum: VARELANONE; EI-MS
Formula: C15H26O
Exact mass: 222.19837
Instrument type: EI-MS
m/z	relative intensity
41	640
42	130
43	330
44	11
51	30
52	20
53	150
54	6
55	430
56	100
57	180
58	5
59	30
65	70
66	50
67	38
68	160
69	520
70	80
71	7
77	110
78	30
79	190
80	6
81	435
82	270
83	290
84	10
85	40
91	165
92	40
93	20
94	120
95	550
96	155
97	17
98	999
99	80
105	135
106	7
107	150
108	70
109	555
110	22
111	100
119	105
120	30
121	13
122	80
123	400
124	100
125	83
126	120
127	20
131	20
133	6
134	20
135	95
136	50
137	8
138	80
139	70
145	20
147	5
148	30
149	70
150	35
151	20
152	60
153	15
159	20
161	21
162	40
163	20
164	20
165	3
166	45
177	40
178	20
179	20
180	40
189	50
190	10
192	2
204	70
205	20
207	95
208	2
222	420
223	80
