Mass spectrum: 4-METHYLTETRAHYDRO-2-PYRONE; EI-MS
Formula: C6H10O2
Exact mass: 114.06808
Instrument type: EI-MS
m/z	relative intensity
26	21
27	158
28	75
29	19
32	17
38	21
39	223
40	6
41	426
42	999
43	199
44	2
53	40
54	23
55	879
56	65
57	47
59	16
69	203
70	33
71	50
73	16
83	12
84	5
85	19
114	351
115	31
