Mass spectrum: ASULAM; EI-MS
Name: METHYL SULFANILYCARBAMATE
Formula: C8H10N2O4S
Exact mass: 230.03613
Instrument type: EI-MS
m/z	relative intensity
15	149
29	234
30	43
31	999
32	769
33	17
65	46
91	10
92	116
108	58
109	20
156	118
198	108
199	11
230	14
231	2
