Mass spectrum: HEXAPHENYLETHANE; EI-MS
Formula: C38H30
Exact mass: 486.23475
Instrument type: EI-MS
m/z	relative intensity
39	96
50	64
51	275
63	44
65	72
76	45
77	811
78	82
91	32
94	45
105	660
106	57
115	59
139	50
152	83
153	80
154	34
163	40
164	54
165	732
166	285
167	112
181	55
182	59
215	72
216	63
228	38
241	52
242	37
243	999
244	247
259	304
260	73
