Mass spectrum: 1,3-DIPHENYLUREA; EI-MS
Name: CARBANILIDE
Formula: C13H12N2O
Exact mass: 212.09496
Instrument type: EI-MS
m/z	relative intensity
18	13
27	12
28	26
38	29
39	103
40	20
41	17
50	22
51	73
52	23
54	10
62	10
63	42
64	53
65	160
66	107
67	13
77	121
78	13
83	12
91	59
92	102
93	999
94	69
119	71
120	19
212	172
213	26
