Mass spectrum: 5-(1-HYDROXY-2-METHYL-3-BUTENYL)-1,2,3-TRIMETHOXYBENZENE; EI-MS
Name: 2-METHYL-1-(3,4,5-TRIMETHOXYPHENYL)-3-BUTENE-1-OL
Formula: C14H20O4
Exact mass: 252.13616
Instrument type: EI-MS
m/z	relative intensity
27	20
29	30
39	40
53	2
55	60
65	20
77	30
93	2
95	30
109	20
111	20
123	3
125	20
138	290
139	70
154	23
155	20
169	530
170	50
181	2
196	20
197	999
198	100
203	3
219	8
234	21
252	33
