Mass spectrum: 1-ETHOXY-3-METHYL-2-BUTENE; EI-MS
Formula: C7H14O
Exact mass: 114.10447
Instrument type: EI-MS
m/z	relative intensity
27	179
29	320
31	68
39	16
40	44
41	675
42	64
43	18
44	37
45	30
53	142
54	2
55	104
57	87
59	34
67	16
68	199
69	445
70	55
71	999
72	52
85	99
99	819
100	6
114	231
115	17
