Mass spectrum: 2,2,5-TRIMETHYLCYCLOPENTANONE; EI-MS
Formula: C8H14O
Exact mass: 126.10447
Instrument type: EI-MS
m/z	relative intensity
27	120
28	107
29	82
39	149
40	51
41	320
42	81
43	45
55	149
56	999
57	168
68	36
69	136
70	78
71	50
72	35
82	31
83	47
84	35
93	51
108	45
111	67
126	177
127	28
