Mass spectrum: 2-NITROBENZOIC ACID; EI-MS
Formula: C7H5NO4
Exact mass: 167.02186
Instrument type: EI-MS
m/z	relative intensity
42	22
43	18
44	999
45	15
50	46
51	123
52	14
63	12
74	15
75	10
76	14
77	285
78	25
86	12
91	17
98	11
105	67
122	65
123	150
124	14
135	19
146	14
147	16
163	80
