Mass spectrum: 2-METHYLCYCLOPENTANONE; EI-MS
Formula: C6H10O
Exact mass: 98.07316
Instrument type: EI-MS
m/z	relative intensity
26	54
27	248
28	193
29	99
38	39
39	217
40	67
41	402
42	999
43	130
53	42
54	47
55	330
56	140
69	285
70	187
80	43
83	99
97	28
98	352
99	33
