Mass spectrum: 7-(3-KETOCYCLOHEXYL)-2-METHYL-6-METHYLENE-8-TRIMETHYLSILYL-2-OCTENE; EI-MS
Formula: C19H34OSi
Exact mass: 306.23789
Instrument type: EI-MS
m/z	relative intensity
41	135
45	52
55	20
59	45
69	117
73	999
74	102
75	137
93	20
97	54
133	21
135	192
136	26
141	21
142	22
155	38
169	113
170	102
181	30
195	36
197	49
209	65
210	21
224	21
263	45
291	31
306	25
