Mass spectrum: 4-PHENYLPHENOL; EI-MS
Formula: C12H10O
Exact mass: 170.07316
Instrument type: EI-MS
m/z	relative intensity
44	16
50	15
51	29
55	35
57	21
58	12
62	15
63	38
65	15
70	20
71	11
72	35
74	10
75	15
76	33
77	21
84	45
85	104
86	14
89	20
102	12
115	102
116	14
139	42
140	12
141	137
142	21
151	15
152	19
153	14
168	20
169	78
170	999
171	133
172	11
