Mass spectrum: TERT-BUTYLAMINE; EI-MS
Formula: C4H11N
Exact mass: 73.08915
Instrument type: EI-MS
m/z	relative intensity
56	5
57	10
58	999
59	41
73	9
