Mass spectrum: DIMETHYL 1-METHYLPYRROLIDINE-3,4-DICARBOXYLATE (3,4-TRANS); EI-MS
Formula: C9H15NO4
Exact mass: 201.10011
Instrument type: EI-MS
m/z	relative intensity
39	165
40	50
41	168
42	574
43	65
45	176
46	39
54	65
55	47
56	124
58	329
59	210
67	184
68	84
71	82
80	87
81	120
82	999
83	111
84	46
96	34
99	86
108	100
110	37
115	131
126	89
127	34
140	268
141	53
142	125
168	64
170	79
186	62
201	68
202	14
154	42
