Mass spectrum: N-METHYL-3,7,11-TRIMETHYL-2,6,10-DODECATRIENE-1-AMINE; EI-MS
Formula: C16H29N
Exact mass: 235.23
Instrument type: EI-MS
m/z	relative intensity
27	50
28	85
29	60
30	9
32	75
39	60
41	520
42	77
43	90
44	600
45	20
53	8
55	130
56	50
57	90
58	4
67	150
68	230
69	999
70	9
71	20
77	40
79	90
80	11
81	230
82	150
83	40
84	50
85	80
91	50
92	60
93	49
94	90
95	80
96	80
97	3
98	770
99	130
105	40
106	2
107	130
108	40
109	90
110	25
111	40
112	20
119	70
120	4
121	110
122	60
123	60
124	4
133	80
134	30
135	80
136	6
137	20
147	30
148	20
150	2
152	30
161	40
164	20
166	17
167	30
189	20
204	20
220	2
234	20
235	130
236	30
