Mass spectrum: SILACYCLOPENTANE (1,1-D2); EI-MS
Formula: C4H10Si
Exact mass: 86.05518
Instrument type: EI-MS
m/z	relative intensity
28	20
43	55
44	148
45	58
46	26
47	10
55	15
56	20
57	42
58	124
59	404
60	999
61	95
62	37
72	16
73	16
84	29
85	10
86	46
87	20
88	327
89	36
90	13
