Mass spectrum: CIS-5-(6-(1,3-DITHIAN-2-YL)HEXYL)-TRANS-4-(TRANS-3-OXO-1-OCTENYL)-2,REF.-3-DIPHENYLISOXAZOLIDINE; EI-MS
Name: (3S,4S,5R)-5-(6-(1,3-DITHIAN-2-YL)HEXYL)-4-(3-OXO-1-OCTENYL)-2,3-DIPHENYLISOXAZOLIDINE
Formula: C33H45NO2S2
Exact mass: 551.28917
Instrument type: EI-MS
m/z	relative intensity
40	145
42	315
44	296
51	255
55	195
67	134
69	125
71	145
77	685
91	999
99	193
104	157
105	224
119	775
151	176
180	743
181	837
182	257
196	213
197	320
198	448
354	173
551	348
552	125
