Mass spectrum: 3,5-DIMETHYLPYRAZOLE; EI-MS
Formula: C5H8N2
Exact mass: 96.06875
Instrument type: EI-MS
m/z	relative intensity
15	20
26	26
27	57
28	62
29	39
30	12
37	14
38	33
39	169
40	47
41	116
42	112
43	18
50	14
51	31
52	34
53	23
54	146
55	48
56	26
61	11
62	22
63	38
65	52
66	25
67	36
68	43
69	17
81	171
94	11
95	666
96	999
97	293
98	16
