Mass spectrum: (+-)-3-METHYL-2-PYRROLIDINONE; EI-MS
Formula: C5H9NO
Exact mass: 99.06841
Instrument type: EI-MS
m/z	relative intensity
39	20
40	30
41	720
42	13
43	50
44	10
45	10
53	1
54	20
55	140
56	999
57	6
68	10
69	10
70	50
71	1
82	10
84	30
97	10
98	13
99	920
100	90
101	10
