Mass spectrum: 5-AMINOQUINOLINE; EI-MS
Formula: C9H8N2
Exact mass: 144.06875
Instrument type: EI-MS
m/z	relative intensity
51	41
55	17
60	12
62	34
63	48
67	12
70	20
71	26
72	24
73	33
74	20
75	13
76	13
84	15
85	34
87	17
88	13
89	106
90	80
91	87
97	10
98	10
106	52
114	20
115	27
116	136
117	228
118	33
127	15
142	23
143	96
144	999
145	110
149	14
153	12
