Mass spectrum: 2,8-DIACETOXY-2-METHYL-5H-CYCLOHEPTA-1,3-DIOXOL-5-ONE; EI-MS
Formula: C13H12O7
Exact mass: 280.0583
Instrument type: EI-MS
m/z	relative intensity
107	42
108	239
109	69
110	21
119	11
123	19
124	21
125	94
126	973
127	70
128	12
136	55
137	61
138	15
149	14
150	180
151	190
152	85
153	104
154	999
155	142
156	23
178	29
179	609
180	46
181	25
195	22
196	241
197	125
198	16
221	107
238	231
239	120
240	17
281	207
282	28
