Mass spectrum: TRIPHENYLENE; EI-MS
Name: 9,10-BENZOPHENANTHRENE
Formula: C18H12
Exact mass: 228.0939
Instrument type: EI-MS
m/z	relative intensity
39	12
87	12
88	13
100	27
101	35
112	31
113	82
114	71
115	14
200	31
201	16
202	31
224	49
225	41
226	223
227	117
228	999
229	193
230	19
