Mass spectrum: 1,1,3,3-TETRAMETHYL-1,3-DISILACYCLOHEXANE; EI-MS
Formula: C8H20Si2
Exact mass: 172.11035
Instrument type: EI-MS
m/z	relative intensity
73	32
97	20
115	43
117	36
129	404
130	98
131	249
132	53
141	25
155	30
157	999
158	188
159	103
172	299
173	78
174	34
