Mass spectrum: 2-HYDROXY-3-METHOXYBENZOIC ACID METHYL ESTER; EI-MS
Formula: C9H10O4
Exact mass: 182.05791
Instrument type: EI-MS
m/z	relative intensity
65	22
66	26
67	10
79	18
92	74
93	24
94	30
104	18
105	12
107	152
108	44
120	215
121	282
122	865
123	70
136	15
149	80
150	960
151	221
152	22
182	999
183	120
184	15
