Mass spectrum: URAMIL; EI-MS
Name: 5-AMINOBARBITURIC ACID
Formula: C4H5N3O3
Exact mass: 143.03309
Instrument type: EI-MS
m/z	relative intensity
14	15
15	24
16	72
17	166
18	698
26	12
27	90
28	686
29	837
30	55
31	15
32	33
36	48
38	18
39	12
40	10
41	36
42	104
43	186
44	273
45	74
46	22
53	13
54	21
55	26
56	15
57	999
58	39
60	11
69	12
70	43
71	22
72	22
87	14
100	75
114	14
128	19
142	12
143	103
