Mass spectrum: 1,2,2,2-TETRAMETHYL-1,1-DI(2-NAPHTHYL)DISILANE; EI-MS
Formula: C24H26Si2
Exact mass: 370.1573
Instrument type: EI-MS
m/z	relative intensity
40	20
41	14
43	237
45	199
46	13
50	11
51	12
53	93
55	18
57	22
58	16
59	35
63	10
73	242
75	17
77	23
103	25
105	18
115	38
116	24
117	13
119	10
127	12
128	25
129	97
130	16
131	20
141	29
142	11
143	30
145	27
153	22
154	19
155	174
156	31
157	15
167	205
168	52
169	447
170	95
171	30
181	22
183	37
184	14
185	490
186	92
187	23
227	90
228	24
229	11
241	11
242	16
252	40
253	16
255	10
265	27
278	12
279	20
280	11
281	25
182	12
295	24
296	14
297	999
298	271
299	69
300	13
355	18
370	225
371	85
372	31
