Mass spectrum: 2,3-DIHYDROXY-3,7,11,15-TETRAMETHYLHEXADECAN-1-OL NITRATE; EI-MS
Formula: C20H41NO5
Exact mass: 375.29847
Instrument type: EI-MS
m/z	relative intensity
27	22
28	92
29	95
31	1
32	20
39	26
41	297
42	5
43	999
44	44
45	46
48	2
53	20
54	9
55	530
56	17
57	954
58	356
59	127
64	6
67	70
68	84
69	796
70	16
71	925
72	83
73	19
79	1
80	37
81	261
82	114
83	69
84	118
85	381
86	30
87	12
88	57
92	11
93	55
94	3
95	243
96	77
97	618
98	7
99	152
100	10
101	14
107	4
108	14
109	214
110	73
111	51
112	68
113	110
115	58
121	5
122	16
123	72
124	51
125	32
126	81
127	87
129	17
135	3
136	10
137	66
138	29
139	14
140	33
141	37
149	40
150	1
151	671
152	35
153	77
154	1
155	22
162	13
163	23
165	2
167	26
169	36
171	21
179	2
191	16
195	20
269	110
270	2
276	20
281	12
