Mass spectrum: 3,5,6-TRIMETHYL-P-HYDOQUINONE DIBENZOATE; EI-MS
Formula: C23H20O4
Exact mass: 360.13616
Instrument type: EI-MS
m/z	relative intensity
51	55
59	27
76	32
77	18
78	44
83	35
89	18
105	999
106	79
107	34
175	5
360	80
