Mass spectrum: DIBUTYLAMINE; EI-MS
Formula: C8H19N
Exact mass: 129.15175
Instrument type: EI-MS
m/z	relative intensity
15	17
26	11
27	148
28	110
29	244
30	364
39	91
40	12
41	240
42	87
43	95
44	999
45	28
53	15
54	14
55	43
56	83
57	191
58	17
68	14
70	26
72	28
84	28
86	901
87	56
100	12
114	12
128	18
129	139
130	19
