Mass spectrum: 3-AMINOQUINOLINE; EI-MS
Name: 3-QUINOLINEAMINE
Formula: C9H8N2
Exact mass: 144.06875
Instrument type: EI-MS
m/z	relative intensity
28	12
39	19
50	12
51	12
59	30
62	16
63	35
64	10
72	42
76	11
88	12
89	106
90	83
91	11
104	11
115	10
116	90
117	156
118	24
142	14
143	124
144	999
145	108
