Mass spectrum: 1,1,3,3-TETRAMETHYLDISILAZANE; EI-MS
Formula: C4H15NSi2
Exact mass: 133.0743
Instrument type: EI-MS
m/z	relative intensity
15	251
26	20
27	59
29	43
31	28
42	23
43	164
44	32
45	76
46	11
51	12
52	12
56	18
57	18
58	57
59	153
60	27
61	18
70	66
71	16
72	44
73	146
74	44
75	25
85	14
86	64
87	15
88	17
89	11
100	71
101	12
102	128
103	25
104	15
116	279
117	53
118	999
119	220
120	87
121	17
130	69
131	31
132	305
133	197
134	51
135	17
