Mass spectrum: ISOPROPYLDIMETHYLSILANE-D1; EI-MS
Formula: C5H14Si
Exact mass: 102.08648
Instrument type: EI-MS
m/z	relative intensity
31	17
43	17
45	17
46	25
57	15
58	330
59	192
60	999
61	78
62	36
73	33
86	13
88	30
101	24
103	106
104	13
