Mass spectrum: PHTHALIMIDE; EI-MS
Formula: C8H5NO2
Exact mass: 147.03203
Instrument type: EI-MS
m/z	relative intensity
18	35
26	12
27	11
28	100
32	23
37	71
38	73
39	28
43	55
44	14
46	14
49	36
50	416
51	39
52	29
53	18
59	12
61	21
62	20
63	36
64	27
66	36
70	13
73	50
74	218
75	168
76	840
77	78
90	33
91	14
92	20
103	381
104	731
105	60
139	11
147	999
148	95
