Mass spectrum: 2,4-DIISOPROPYL-4,4A-DIHYDRO-1H-(1,3,5)TRIAZINO(1,2-A)QUINOLINE-1,3,6(2H,5H)-TRIONE; EI-MS
Formula: C17H21N3O3
Exact mass: 315.15829
Instrument type: EI-MS
m/z	relative intensity
34	15
36	18
38	13
39	80
40	213
41	256
42	138
43	311
44	664
45	64
50	18
51	22
53	13
54	22
55	62
56	84
57	73
58	67
60	22
63	36
64	40
65	29
67	13
68	20
69	47
70	284
71	42
72	15
73	13
75	13
76	53
77	82
78	18
81	16
82	16
83	36
84	118
85	40
86	18
87	16
89	67
90	287
91	71
92	29
93	13
95	11
96	10
97	16
99	11
102	10
103	19
104	58
105	36
111	13
113	13
116	76
117	147
118	107
119	47
120	16
128	24
129	29
130	13
131	16
132	38
133	53
134	24
141	11
144	84
145	818
146	620
147	98
149	44
155	44
159	15
160	71
161	38
162	42
167	16
187	64
188	31
189	22
201	17
202	27
203	22
215	156
216	42
217	22
230	173
231	180
232	84
258	22
259	40
272	127
273	153
274	78
279	13
315	999
316	273
