Mass spectrum: 1,1,4,4-TETRAMETHYL-1,4-DISILACYCLOHEXANE; EI-MS
Formula: C8H20Si2
Exact mass: 172.11035
Instrument type: EI-MS
m/z	relative intensity
58	19
59	83
71	25
73	131
83	20
85	146
86	38
87	67
97	424
98	59
99	47
101	31
115	36
116	588
117	112
118	59
129	306
130	59
131	37
143	122
144	60
145	20
157	965
158	202
159	86
172	999
173	208
174	94
