Mass spectrum: 4-CHLORO-3-PHENYLTHIOMETHOXYPHENOL; EI-MS
Formula: C13H11ClO2S
Exact mass: 266.01683
Instrument type: EI-MS
m/z	relative intensity
45	190
51	40
77	60
79	3
123	999
124	80
125	40
231	6
266	30
