Mass spectrum: PHOSPHORODITHIOIC ACID O,O-DIETHYL S-(2-(ETHYLTHIO)ETHYL) ESTER; EI-MS
Name: DISULFOTON
Formula: C8H19O2PS3
Exact mass: 274.02848
Instrument type: EI-MS
m/z	relative intensity
45	28
46	11
47	46
55	11
59	53
60	209
61	200
62	17
63	12
64	12
65	106
73	12
75	48
88	999
89	395
90	62
91	21
93	89
97	199
99	11
109	43
112	14
114	32
121	35
124	10
125	133
129	61
130	16
131	18
142	162
144	15
153	148
155	11
157	33
158	51
159	21
161	11
185	14
186	154
187	43
188	17
189	28
212	11
213	15
245	15
274	128
275	17
276	18
