Mass spectrum: METHYL 4-METHYL-2-PHENYL-1-PYRROLINE-4-CARBOXYLATEMETHYL (4S)-4-METHYL-2-PHENYL-1-PYRROLINE-4-CARBOXYLATE; EI-MS
Formula: C13H15NO2
Exact mass: 217.11028
Instrument type: EI-MS
m/z	relative intensity
39	127
41	57
50	37
51	124
53	48
55	175
59	45
63	46
65	30
76	44
77	244
78	36
89	72
90	66
91	79
103	71
104	113
105	42
114	46
115	80
116	59
117	999
118	109
128	60
129	50
143	39
156	76
157	120
158	713
159	93
217	250
218	36
