Mass spectrum: DIETHYL MALEATE; EI-MS
Formula: C8H12O4
Exact mass: 172.07356
Instrument type: EI-MS
m/z	relative intensity
27	27
28	12
29	100
31	1
43	12
45	39
47	21
54	2
55	54
56	12
71	27
72	2
82	63
98	15
99	999
100	15
101	15
117	12
125	24
126	32
127	474
128	148
129	15
143	8
145	27
