Mass spectrum: 2-DIETHYLAMINOETHYL ACETATE; EI-MS
Formula: C8H17NO2
Exact mass: 159.12593
Instrument type: EI-MS
m/z	relative intensity
27	33
29	58
30	93
42	92
43	184
44	53
56	96
57	18
58	215
70	28
71	26
72	35
84	54
86	999
87	363
88	19
99	60
100	60
116	19
144	29
159	52
