Mass spectrum: 1,1-DIMETHYLSILACYCLOPENTANE; EI-MS
Formula: C6H14Si
Exact mass: 114.08648
Instrument type: EI-MS
m/z	relative intensity
43	19
45	16
58	394
59	133
60	21
71	176
72	49
73	19
85	28
86	999
87	99
88	38
97	70
98	11
99	411
100	46
101	18
114	222
115	29
116	9
