Mass spectrum: MALEIMIDE; EI-MS
Formula: C4H3NO2
Exact mass: 97.01638
Instrument type: EI-MS
m/z	relative intensity
41	52
42	36
43	85
44	2
45	12
53	88
54	779
55	5
56	68
57	31
58	25
60	2
68	13
69	385
70	32
71	2
82	30
83	12
84	11
85	1
97	999
98	61
99	55
