Mass spectrum: 2,7-BIS(METHYLPHENYLSILYL)NAPHTHALENE; EI-MS
Formula: C24H24Si2
Exact mass: 368.14165
Instrument type: EI-MS
m/z	relative intensity
43	97
53	24
78	10
79	13
91	23
93	13
95	19
103	13
105	173
106	27
107	14
119	29
120	37
121	197
122	28
129	33
130	41
131	14
135	34
136	13
137	31
145	14
153	10
154	10
155	47
167	47
168	19
169	90
170	27
171	16
176	11
179	14
181	20
183	32
185	19
195	24
197	297
198	59
199	17
202	21
203	10
205	20
215	26
229	31
230	17
231	82
232	25
233	20
245	57
246	17
247	999
248	237
249	61
257	12
271	11
273	13
275	95
276	28
277	10
290	104
291	36
292	13
309	49
310	14
323	11
353	100
354	35
355	13
367	31
368	390
369	144
370	52
371	11
