Mass spectrum: 5-PHENYL-2-PARA-TOLYLPERHYDROPYRROLO(3,4-C)PYRROLE-1,3-DIONE; EI-MS
Formula: C19H18N2O2
Exact mass: 306.13683
Instrument type: EI-MS
m/z	relative intensity
39	131
41	80
51	151
52	47
56	55
65	63
68	72
77	455
78	107
91	620
92	61
104	363
105	264
106	68
115	80
117	98
118	64
119	373
120	50
132	85
133	79
143	94
144	748
145	143
146	50
172	66
215	63
305	145
306	999
307	202
