Mass spectrum: PENICILIN S-OXIDE; EI-MS
Formula: C28H26N2O5S
Exact mass: 502.15624
Instrument type: EI-MS
m/z	relative intensity
18	91
28	14
44	19
64	24
70	70
77	21
78	13
90	18
96	20
105	220
106	16
117	58
145	960
146	117
147	11
152	14
161	10
165	31
166	27
167	999
168	150
169	11
172	14
183	11
184	17
241	51
273	134
274	25
484	46
485	16
