Mass spectrum: IODOETHANE; EI-MS
Name: ETHYLIODIDE
Formula: C2H5I
Exact mass: 155.94359
Instrument type: EI-MS
m/z	relative intensity
25	28
26	208
27	871
28	99
29	999
30	22
127	267
128	50
141	15
156	577
157	14
