Mass spectrum: ACEPHATE; EI-MS
Name: O,S-DIMETHYL ACETYLPHOSPHORAMIDOTHIOATE
Formula: C4H10NO3PS
Exact mass: 183.0119
Instrument type: EI-MS
m/z	relative intensity
15	10
30	16
42	460
43	152
47	23
48	13
62	10
64	42
65	15
79	38
80	23
94	343
95	183
96	152
125	63
136	999
137	47
168	13
183	36
185	3
