Mass spectrum: BETA-SELINENE; EI-MS
Formula: C15H24
Exact mass: 204.1878
Instrument type: EI-MS
m/z	relative intensity
41	999
42	95
43	235
44	6
51	115
52	75
53	405
54	8
55	590
56	80
57	100
63	6
64	40
65	210
66	95
67	48
68	190
69	275
70	55
77	40
78	120
79	525
80	210
81	64
82	200
83	95
91	610
92	17
93	760
94	240
95	380
96	8
97	85
103	75
104	55
105	65
106	190
107	650
108	310
109	28
110	70
115	85
116	55
117	11
118	70
119	360
120	160
121	41
122	220
123	180
124	60
128	6
129	60
130	45
131	95
132	6
133	430
134	170
135	180
145	9
146	80
147	300
148	160
149	12
150	60
161	410
162	170
163	7
175	185
176	80
189	460
190	9
204	480
205	95
