Mass spectrum: 4-AMINOANTIPYRINE; EI-MS
Name: 4-AMINO-1,5-DIMETHYL-2-PHENYL-3H-PYRAZOL-3-ONE
Formula: C11H13N3O
Exact mass: 203.10586
Instrument type: EI-MS
m/z	relative intensity
15	71
18	32
27	37
28	104
29	30
30	18
38	27
39	55
40	18
41	35
42	431
43	26
50	32
51	115
52	42
53	22
54	88
55	50
56	999
57	570
58	19
62	10
63	45
64	75
65	55
66	15
67	12
69	16
76	14
77	226
78	38
82	10
83	206
84	554
85	27
91	98
92	37
93	68
109	13
118	10
119	79
120	35
147	20
202	71
203	774
204	104
