Mass spectrum: 5-ALPHA-ANDROSTAN-3-ONE; EI-MS
Formula: C19H30O
Exact mass: 274.22967
Instrument type: EI-MS
m/z	relative intensity
43	11
55	28
57	23
67	38
68	34
69	30
79	21
80	18
81	109
82	37
83	35
91	13
92	11
93	63
94	42
95	194
96	43
97	31
98	11
105	30
106	61
107	153
108	65
109	119
110	34
111	47
118	13
119	38
120	35
121	114
122	42
123	91
124	88
125	20
131	21
132	11
133	43
134	22
135	81
136	27
137	40
145	28
146	19
147	48
148	28
149	84
150	24
151	33
159	28
160	16
161	48
162	32
163	78
164	20
165	12
173	26
174	16
175	36
176	29
177	24
179	14
185	15
187	131
188	27
189	64
190	20
199	11
200	16
201	51
202	999
204	158
205	19
213	19
214	18
216	24
217	75
218	20
219	48
227	11
230	178
232	80
233	13
241	86
242	16
245	21
246	40
247	10
256	23
259	177
260	35
274	604
275	121
276	14
