Mass spectrum: 1,2-DIMETHOXY-4-NITROBENZENE; EI-MS
Name: 4-NITROVERATROLE
Formula: C8H9NO4
Exact mass: 183.05316
Instrument type: EI-MS
m/z	relative intensity
15	60
18	11
28	13
29	19
30	148
38	10
39	20
40	45
42	18
44	11
47	20
51	94
52	237
53	50
54	52
56	17
61	19
62	57
63	111
64	44
65	42
66	82
67	12
69	39
74	28
75	32
76	50
77	202
78	41
79	396
80	41
82	21
91	20
92	124
93	34
94	112
95	53
107	147
108	68
109	31
110	71
121	23
122	71
123	24
125	128
126	10
137	147
138	19
153	168
154	15
167	28
168	50
183	999
184	96
185	12
