Mass spectrum: (E)-(3R)-(1'R,2'S,5'R)-8'-PHENYLMENTHYL 3-BENZYLAMINO-5-PHENYL-4-PENTENOATE; EI-MS
Formula: C34H41NO2
Exact mass: 495.31373
Instrument type: EI-MS
m/z	relative intensity
344	29
404	999
405	293
406	38
493	149
494	60
495	501
496	178
497	24
