Mass spectrum: TRIMETHYLSILYL-1,3-BUTADIYNE; EI-MS
Formula: C7H10Si
Exact mass: 122.05518
Instrument type: EI-MS
m/z	relative intensity
52	11
53	11
54	695
55	95
56	216
57	21
58	32
59	11
63	11
64	21
65	95
66	84
67	116
69	11
73	63
77	242
79	137
80	11
82	32
89	11
90	21
91	42
93	11
107	999
108	116
109	42
122	195
123	21
