Mass spectrum: SPIRO(4.4)SILANONANE; EI-MS
Formula: C8H16Si
Exact mass: 140.10213
Instrument type: EI-MS
m/z	relative intensity
56	29
57	20
70	12
82	27
83	88
84	540
85	78
86	24
97	21
98	20
111	22
112	999
113	130
114	47
140	387
141	61
142	19
