Mass spectrum: METHYL 3-METHYL-5-PHENYL-1-PYRROLINE-4-CARBOXYLATE (3,4-TRANS-4,5-CIS); EI-MS
Name: METHYL (3R,4R,5R)-3-METHYL-5-PHENYL-1-PYRROLINE-4-CARBOXYLATE
Formula: C13H15NO2
Exact mass: 217.11028
Instrument type: EI-MS
m/z	relative intensity
40	559
42	547
51	172
52	476
54	255
59	579
63	436
64	170
65	165
69	784
77	507
78	154
89	784
90	999
91	541
101	134
102	137
103	227
104	289
115	461
116	399
117	913
128	248
129	225
130	199
143	124
157	209
158	438
159	43
161	50
169	24
170	24
174	38
186	30
217	108
218	25
