Mass spectrum: ANILINE; EI-MS
Formula: C6H7N
Exact mass: 93.05785
Instrument type: EI-MS
m/z	relative intensity
26	11
27	18
37	21
38	55
39	130
40	53
41	73
42	15
46	14
47	60
50	37
51	35
52	45
53	11
54	36
61	19
62	24
63	48
64	25
65	179
66	327
67	46
76	12
78	20
92	117
93	999
94	77
