Mass spectrum: 2,5-DIETHOXY-3-METHYL-3-VINYLHEXANE; EI-MS
Formula: C13H26O2
Exact mass: 214.19328
Instrument type: EI-MS
m/z	relative intensity
41	23
43	56
45	545
46	16
55	19
58	11
59	23
67	17
69	13
70	12
73	999
74	63
75	41
81	51
82	13
86	10
95	10
96	26
103	36
139	2
214	7
