Mass spectrum: METHYL 1-BENZYLPYRROLIDINE-3-CARBOXYLATE; EI-MS
Formula: C13H17NO2
Exact mass: 219.12593
Instrument type: EI-MS
m/z	relative intensity
39	76
41	85
42	389
52	49
57	50
65	156
68	56
72	301
86	48
91	999
92	152
132	71
133	54
162	100
163	62
170	295
171	34
184	26
188	52
204	70
205	10
232	17
260	20
261	58
262	11
