Mass spectrum: CHLOROHYDROQUINONE; EI-MS
Formula: C6H5ClO2
Exact mass: 143.99781
Instrument type: EI-MS
m/z	relative intensity
25	10
26	38
27	40
28	10
29	35
37	16
38	14
39	20
49	14
50	48
51	138
52	408
53	148
54	41
55	43
60	19
61	30
62	31
63	38
69	19
72	22
73	16
79	49
80	258
81	106
82	15
86	13
87	18
89	15
107	15
108	31
109	13
110	60
114	12
115	35
117	11
143	26
144	999
145	77
146	330
147	22
