Mass spectrum: 4-HYDROXYBENZOIC ACID; EI-MS
Formula: C7H6O3
Exact mass: 138.03169
Instrument type: EI-MS
m/z	relative intensity
41	47
42	11
43	53
44	331
45	47
46	28
27	12
50	37
51	34
53	42
55	70
56	12
57	38
60	52
61	32
62	39
63	101
64	27
65	187
66	20
69	25
71	19
73	42
74	20
77	53
78	53
81	24
83	13
85	10
92	19
93	239
94	23
105	85
121	999
122	139
123	10
138	862
139	63
