Mass spectrum: N-METHYL-D-GLUCAMINE; EI-MS
Formula: C7H17NO5
Exact mass: 195.11067
Instrument type: EI-MS
m/z	relative intensity
15	35
18	11
19	18
27	21
28	45
29	29
30	71
31	58
32	55
41	13
42	44
43	68
44	999
45	67
55	10
56	35
57	23
58	18
60	23
61	36
66	10
73	36
74	191
75	35
86	21
87	13
88	12
104	58
105	13
116	45
134	48
164	26
196	138
197	11
