Mass spectrum: 2,4-DIMETHOXYBENZOIC ACID METHYL ESTER; EI-MS
Formula: C10H12O4
Exact mass: 196.07356
Instrument type: EI-MS
m/z	relative intensity
77	23
92	11
107	28
109	19
122	48
135	73
136	30
137	25
138	12
150	22
151	11
163	196
164	38
165	999
166	95
167	48
179	30
196	568
197	68
198	8
