Mass spectrum: 5,5-DIMETHYL-6-METHYLENEBICYCLO(2.2.1)HEPTAN-2-OL; EI-MS
Formula: C10H16O
Exact mass: 152.12012
Instrument type: EI-MS
m/z	relative intensity
27	46
29	35
49	115
51	23
53	56
55	63
65	40
66	33
67	111
68	30
69	50
77	117
78	21
79	96
80	21
81	82
82	51
83	29
91	203
92	46
93	532
94	53
95	117
96	17
105	47
106	35
107	189
108	999
109	182
110	20
119	145
121	85
123	14
134	21
137	40
