Mass spectrum: BETA-HYDROXYETHYLTHEOPHYLLINE; EI-MS
Name: 1,3-DIMETHYL-7-(2-HYDROXYETHYL)XANTHINE
Formula: C9H12N4O3
Exact mass: 224.09094
Instrument type: EI-MS
m/z	relative intensity
14	31
15	307
19	12
26	39
27	212
28	440
29	620
30	88
31	999
32	32
38	12
39	27
40	121
41	118
42	140
43	334
44	187
45	179
51	25
52	69
53	97
54	98
55	43
56	422
57	108
58	204
65	21
66	143
67	211
68	81
69	24
70	47
77	19
78	13
79	38
80	70
81	214
82	37
83	23
93	17
94	67
95	67
96	21
97	12
108	20
109	85
110	14
122	56
123	21
136	18
137	14
151	13
152	11
180	45
193	61
194	20
206	10
224	32
225	20
