Mass spectrum: 1,2-DI(DEUTERIOETHYNYL)-1,1,2,2-TETRAPHENYL-DISILANE; EI-MS
Formula: C28H22Si2
Exact mass: 414.126
Instrument type: EI-MS
m/z	relative intensity
39	14
43	28
44	14
51	56
52	14
53	401
54	359
55	56
56	14
77	70
78	63
79	148
80	35
103	246
104	106
105	999
106	169
107	42
129	218
130	218
131	70
132	35
152	21
153	35
154	21
155	254
156	85
157	28
165	21
166	14
178	14
179	92
180	183
181	620
182	169
183	120
184	28
204	14
205	35
206	56
207	211
208	908
209	162
210	42
259	106
261	28
309	14
338	28
339	35
340	21
415	42
416	127
417	113
418	42
