Mass spectrum: CYCLOHEXYLBENZENE; EI-MS
Formula: C12H16
Exact mass: 160.1252
Instrument type: EI-MS
m/z	relative intensity
41	104
57	85
65	56
67	79
69	59
77	72
78	78
82	45
91	518
92	209
103	73
104	999
105	150
115	124
117	804
118	153
131	100
160	742
161	104
