Mass spectrum: 3-METHOXYCYCLOHEPTA(B)FURAN-2-ONE; EI-MS
Formula: C10H8O3
Exact mass: 176.04734
Instrument type: EI-MS
m/z	relative intensity
38	45
39	91
50	165
51	387
52	49
53	48
62	71
63	100
74	47
75	38
76	87
77	659
78	59
82	38
89	78
90	65
105	570
106	45
110	41
127	39
133	999
134	89
161	51
176	587
177	66
