Mass spectrum: 20-CARBOXY-11-HYDROXY-3-OXO-PREGNANE; EI-MS
Formula: C22H34O4
Exact mass: 362.24571
Instrument type: EI-MS
m/z	relative intensity
41	285
43	243
53	116
55	51
67	290
69	195
77	143
79	30
81	627
83	134
84	99
91	30
93	403
94	108
95	352
97	14
105	348
106	105
107	448
108	22
109	331
110	117
111	134
119	30
120	128
121	466
122	263
123	22
124	191
131	164
133	249
134	12
135	227
137	157
143	93
145	30
146	117
147	395
148	104
149	13
157	117
159	247
160	100
161	28
163	130
171	103
173	166
174	9
177	142
187	97
189	118
191	9
199	152
201	247
203	86
213	10
215	113
217	167
218	84
219	11
229	159
231	76
233	90
244	8
247	314
248	161
253	284
255	7
260	92
269	123
270	317
271	99
272	244
273	123
274	77
287	1
288	69
298	107
300	92
301	10
316	246
326	247
327	82
344	41
345	110
347	110
362	999
363	110
