Mass spectrum: 2,6-DIMETHOXYBENZOIC ACID; EI-MS
Formula: C9H10O4
Exact mass: 182.05791
Instrument type: EI-MS
m/z	relative intensity
39	94
40	22
41	66
43	37
44	37
45	18
50	17
51	52
52	65
53	47
55	61
59	19
63	17
64	41
65	210
66	40
67	29
68	50
69	44
76	336
77	340
78	219
79	366
80	58
81	54
82	17
90	161
91	98
92	150
93	91
94	212
95	65
96	33
104	122
105	579
106	234
107	824
108	164
109	76
111	17
118	399
119	425
120	52
121	176
122	158
123	122
124	19
132	21
133	87
134	55
135	843
136	578
137	110
138	40
145	23
149	110
150	194
151	99
163	63
164	282
165	48
166	54
182	999
183	105
184	17
