Mass spectrum: 3-OCTYL ISOVALERATE; EI-MS
Formula: C13H26O2
Exact mass: 214.19328
Instrument type: EI-MS
m/z	relative intensity
15	13
20	17
27	72
29	89
31	12
32	80
39	53
40	62
41	250
42	65
43	154
45	13
53	16
54	15
55	114
56	103
57	521
58	31
59	23
60	59
61	14
69	52
70	97
72	11
82	19
83	63
84	42
85	999
86	50
87	34
97	11
100	13
102	52
103	72
112	100
113	21
129	12
143	41
185	19
