Mass spectrum: CARBON TETRABROMIDE; EI-MS
Name: TETRABROMOMETHANE
Formula: CBr4
Exact mass: 327.67335
Instrument type: EI-MS
m/z	relative intensity
12	115
79	433
80	15
81	422
82	14
91	339
93	328
125	10
126	10
158	19
160	37
162	18
170	158
172	304
174	147
249	346
251	999
252	11
253	971
254	11
255	320
