Mass spectrum: (3AR*,7S*,7AR*,8AS*)-2-METHYL-7-PHENYL-1,23,3A,5,6,7,7A,8,8A,-DECAHYDROCYCLOPENT(F)ISOINDOLE-1,3,5-TRIONE; EI-MS
Formula: C18H17NO3
Exact mass: 295.12084
Instrument type: EI-MS
m/z	relative intensity
38	83
50	47
51	133
52	92
58	56
63	50
65	51
75	40
76	257
77	999
78	106
91	60
102	39
103	129
104	201
105	348
106	199
115	53
128	44
131	51
132	30
153	40
163	456
164	59
165	83
166	42
167	56
171	50
184	244
185	42
191	135
295	167
296	40
