Mass spectrum: 2,7-OCTADIEN-1-OL; EI-MS
Formula: C8H14O
Exact mass: 126.10447
Instrument type: EI-MS
m/z	relative intensity
26	23
27	453
29	589
31	22
38	23
39	558
40	29
41	94
42	195
43	382
44	104
45	3
50	23
51	58
52	29
53	24
54	782
55	999
56	244
57	80
58	65
65	65
66	91
67	89
68	211
69	167
70	245
71	10
77	73
78	52
79	412
80	26
81	129
82	238
83	347
84	34
85	31
91	49
93	361
94	4
95	258
96	24
97	53
98	3
108	84
109	19
