Mass spectrum: (E)-3-(ETHOXYCARBONYLMETHYLENE)-1-PARA-TOLYL-2,5-PYRROLIDINEDIONE; EI-MS
Formula: C15H15NO4
Exact mass: 273.10011
Instrument type: EI-MS
m/z	relative intensity
27	46
29	217
39	224
65	38
66	52
67	251
81	70
82	45
89	64
98	86
108	64
110	44
111	69
114	50
132	100
133	80
139	95
143	59
144	45
155	54
156	62
172	109
173	48
199	73
200	53
201	46
227	850
228	264
273	999
274	224
