Mass spectrum: 3,4-METHYLENEDIOXYCINNAMIC ACID; EI-MS
Formula: C10H8O4
Exact mass: 192.04226
Instrument type: EI-MS
m/z	relative intensity
39	17
51	8
52	15
53	7
55	7
63	30
64	9
65	21
66	8
69	9
77	28
78	30
79	15
88	8
89	99
90	14
91	23
93	6
105	12
106	6
117	51
118	11
119	6
121	8
133	8
134	10
135	18
145	103
146	68
147	27
149	8
150	12
151	7
163	11
164	11
175	114
176	13
191	395
192	999
193	112
194	14
