Mass spectrum: SILACYCLOBUTANE; EI-MS
Formula: C3H8Si
Exact mass: 72.03953
Instrument type: EI-MS
m/z	relative intensity
28	143
29	27
31	24
39	15
41	33
42	36
43	220
44	999
45	122
46	46
55	56
56	37
57	81
68	13
69	21
70	234
71	219
72	699
73	66
74	30
