Mass spectrum: (E,E)-(1'R,2'S,5'R)-8'-PHENYLMENTHYL 5-PHENYL-2,4-PENTADIENOATE; EI-MS
Formula: C27H32O2
Exact mass: 388.24023
Instrument type: EI-MS
m/z	relative intensity
199	145
200	19
214	493
215	113
216	10
230	83
232	14
236	48
269	610
270	288
271	56
279	33
292	139
294	19
317	65
367	63
379	24
388	999
389	298
390	49
