Mass spectrum: 2,3-DIMETHOXYBENZOIC ACID METHYL ESTER; EI-MS
Formula: C10H12O4
Exact mass: 196.07356
Instrument type: EI-MS
m/z	relative intensity
45	65
59	17
65	32
77	48
79	20
91	16
92	14
93	22
95	14
105	15
107	64
108	31
109	33
110	15
118	20
119	19
120	14
121	29
122	86
123	65
125	39
133	22
135	102
136	38
137	19
149	142
150	48
151	24
153	55
163	800
164	110
165	564
166	42
167	138
168	11
179	15
181	40
196	999
197	111
198	15
