Mass spectrum: 3,3-DICYANO-1-METHYL-4-PHENYLPYRROLIDINE; EI-MS
Formula: C13H13N3
Exact mass: 211.11095
Instrument type: EI-MS
m/z	relative intensity
38	126
40	84
41	999
42	119
50	87
51	194
57	880
58	33
63	82
64	31
65	91
76	196
77	131
78	49
89	86
90	31
91	102
103	188
104	112
127	98
128	33
130	14
134	12
140	36
141	17
153	26
154	78
155	12
168	10
211	31
52	96
