Mass spectrum: ISOPENTANE; EI-MS
Formula: C5H12
Exact mass: 72.0939
Instrument type: EI-MS
m/z	relative intensity
15	18
26	24
27	265
28	4
29	365
30	12
38	18
39	17
40	24
41	706
42	882
43	999
44	35
50	12
51	12
53	2
55	53
56	200
57	582
58	3
71	24
72	88
