Mass spectrum: 2-BENZYL-4-METHYL-4,4A-DIHYDRO-1H-(1,3,5)TRIAZINO(1,2-A)QUINOLINE-1,3,6(2H,5H)-TRIONE; EI-MS
Formula: C19H17N3O3
Exact mass: 335.12699
Instrument type: EI-MS
m/z	relative intensity
35	18
38	20
39	149
40	124
41	113
42	98
43	109
44	387
45	27
47	44
48	16
49	16
50	64
51	127
52	38
53	18
54	18
55	78
56	129
57	104
58	91
60	16
62	22
63	116
64	76
65	382
66	29
67	18
68	16
69	47
70	67
71	33
73	18
74	17
75	28
76	107
77	267
78	89
79	29
81	22
82	22
83	198
84	26
85	91
86	13
87	17
89	176
90	431
91	771
92	351
93	33
95	13
96	12
97	22
102	18
103	38
104	186
105	160
106	126
107	29
116	96
117	176
118	102
119	38
120	36
128	13
129	33
130	27
131	20
132	329
133	149
134	18
143	13
144	89
145	373
146	582
147	80
149	22
157	16
158	16
159	14
161	93
162	16
171	18
172	16
173	29
174	213
175	56
187	87
188	16
189	16
190	20
200	16
201	24
202	13
203	11
230	240
231	329
232	60
235	16
244	693
245	147
246	16
257	18
292	20
334	29
335	999
336	367
