Mass spectrum: TRICHOSTATIN A; EI-MS
Name: 7-(4-(DIMETHYLAMINO)PHENYL)-N-HYDROXY-4,6-DIMETHYL-7-OXO-2,4-HEPTADIENAMIDE
Formula: C17H22N2O3
Exact mass: 302.16304
Instrument type: EI-MS
m/z	relative intensity
42	14
44	11
77	18
79	28
105	25
118	10
119	26
120	40
121	27
134	16
148	999
149	71
177	37
199	14
200	15
214	13
225	10
228	158
229	30
240	14
243	19
256	18
274	15
286	56
287	73
288	17
