Mass spectrum: AZOBENZENE; EI-MS
Formula: C12H10N2
Exact mass: 182.0844
Instrument type: EI-MS
m/z	relative intensity
51	22
77	773
78	61
89	15
91	34
92	38
93	364
94	71
102	29
103	30
104	14
105	999
106	65
115	49
127	19
128	45
139	16
151	37
152	164
153	136
154	49
167	13
168	12
169	19
182	660
183	100
184	11
