Mass spectrum: 3-(4-CYANOBENZYL)TROPOLONE; EI-MS
Formula: C15H11NO2
Exact mass: 237.07898
Instrument type: EI-MS
m/z	relative intensity
39	95
51	67
63	65
77	83
78	53
89	58
107	59
116	88
180	82
190	241
191	121
208	74
209	62
219	53
220	80
236	167
237	999
238	165
