Mass spectrum: 2-AMINOTHIAZOLE; EI-MS
Formula: C3H4N2S
Exact mass: 100.00952
Instrument type: EI-MS
m/z	relative intensity
18	22
26	32
27	44
28	271
29	16
32	41
38	17
39	25
40	46
41	32
42	61
43	78
44	34
45	195
46	68
47	23
53	20
55	59
57	136
58	741
59	48
60	105
70	21
71	13
72	12
73	173
74	18
100	999
101	67
102	48
