Mass spectrum: METHYLPHENYLSILANE; EI-MS
Formula: C7H10Si
Exact mass: 122.05518
Instrument type: EI-MS
m/z	relative intensity
52	138
53	160
54	649
55	638
56	149
59	32
60	96
61	32
64	11
65	53
66	74
67	85
68	11
69	64
74	64
77	149
78	96
79	160
80	32
81	85
91	32
93	53
95	53
96	11
103	53
105	457
106	202
107	745
108	85
109	21
120	510
121	999
122	830
123	117
124	21
