Mass spectrum: 2,2-DIMETHYLBUTANE; EI-MS
Formula: C6H14
Exact mass: 86.10955
Instrument type: EI-MS
m/z	relative intensity
15	27
26	23
27	286
28	54
29	410
32	14
38	20
39	257
40	35
41	650
42	29
43	999
44	33
50	17
51	24
53	46
54	11
55	155
56	325
57	985
58	46
69	13
70	39
71	825
72	45
