Mass spectrum: 2-METHYLCYCLOPENTANONE; EI-MS
Formula: C6H10O
Exact mass: 98.07316
Instrument type: EI-MS
m/z	relative intensity
28	114
29	41
41	221
42	999
43	157
54	58
55	358
56	175
69	381
70	235
80	58
83	135
97	36
98	609
99	44
