Mass spectrum: 5-METHOXY-2-METHYLINDOLE; EI-MS
Formula: C10H11NO
Exact mass: 161.08406
Instrument type: EI-MS
m/z	relative intensity
40	16
51	11
52	16
53	17
62	15
63	28
64	14
65	24
74	10
75	13
76	24
77	29
78	13
81	25
89	44
90	41
91	66
102	19
103	29
116	35
117	219
118	537
119	50
128	15
129	10
130	56
131	15
132	27
145	26
146	634
147	67
160	86
161	999
162	113
