Mass spectrum: 4,4-ETHYLENDIOXY-1-(5-OXOHEXANOYL)CYCLOHEXENE; EI-MS
Formula: C14H20O4
Exact mass: 252.13616
Instrument type: EI-MS
m/z	relative intensity
39	70
41	97
42	197
43	321
45	37
51	25
53	168
55	157
65	45
66	22
67	69
71	38
73	25
77	64
78	22
79	38
81	103
85	63
86	999
91	37
93	22
95	52
99	26
107	26
109	36
113	41
115	23
121	55
122	59
123	74
137	33
139	23
165	25
167	77
180	39
252	58
