Mass spectrum: 4-CYANO-2,5-DIMETHOXY-6-METHYLTROPONE; EI-MS
Formula: C11H11NO3
Exact mass: 205.07389
Instrument type: EI-MS
m/z	relative intensity
37	87
38	384
39	111
42	319
50	114
51	248
52	145
53	157
62	66
63	145
64	131
65	143
66	98
67	80
68	80
75	159
76	209
77	64
78	130
90	66
91	187
93	60
103	64
104	89
106	98
119	102
134	215
135	31
137	25
145	18
146	66
148	76
149	68
150	24
152	24
160	35
162	999
163	115
164	18
165	45
174	120
175	25
176	66
177	103
178	26
181	48
190	50
193	19
205	111
206	17
