Mass spectrum: 4-CHLOROBENZONITRILE; EI-MS
Formula: C7H4ClN
Exact mass: 137.00323
Instrument type: EI-MS
m/z	relative intensity
18	30
26	17
27	19
28	31
35	10
36	12
37	50
38	39
39	19
49	37
50	169
51	125
52	26
60	18
61	23
62	27
63	25
64	17
68	16
72	12
73	46
74	77
75	195
76	108
77	10
84	12
85	13
86	15
99	28
100	33
101	36
102	341
103	30
110	24
111	11
137	999
138	80
139	321
140	27
