Mass spectrum: 1-METHYLSILACYCLOBUTANE; EI-MS
Formula: C4H10Si
Exact mass: 86.05518
Instrument type: EI-MS
m/z	relative intensity
27	30
28	50
29	77
30	10
31	26
39	39
41	17
42	101
43	600
44	68
45	122
46	10
53	45
54	10
55	44
56	11
57	23
58	999
59	124
60	41
65	10
66	20
67	19
69	12
70	22
71	56
85	23
86	303
87	32
88	11
