Mass spectrum: 1-(2,3-DIHYDROXYPHENYL)ETHANONE; EI-MS
Name: 2',3'-DIHYDROXYACETOPHENONE
Formula: C8H8O3
Exact mass: 152.04734
Instrument type: EI-MS
m/z	relative intensity
27	11
43	91
52	16
53	35
55	33
63	19
64	13
77	28
78	28
81	155
82	11
91	15
105	25
107	25
108	23
109	88
110	20
123	12
134	86
136	13
137	999
138	77
151	46
152	724
153	65
