Mass spectrum: ETHYL LEVULINATE; EI-MS
Name: BETA-ACETYLPROPIONIC ACID ETHYL ESTER
Formula: C7H12O3
Exact mass: 144.07864
Instrument type: EI-MS
m/z	relative intensity
15	61
26	27
27	146
28	9
29	211
30	17
31	17
39	2
41	14
42	54
43	999
44	2
45	92
55	95
56	75
57	8
58	17
61	14
71	88
72	1
73	122
74	194
75	58
81	1
89	10
98	82
99	553
100	4
101	156
102	136
103	10
116	1
129	149
130	14
144	85
145	10
