Mass spectrum: ISOBUTYL LAURATE; EI-MS
Formula: C16H32O2
Exact mass: 256.24023
Instrument type: EI-MS
m/z	relative intensity
29	10
41	17
43	45
55	1
56	999
57	572
58	24
60	15
61	59
69	17
70	14
71	6
73	80
74	12
81	10
83	3
84	23
85	51
87	28
95	2
97	24
98	30
99	17
101	3
109	14
111	12
115	30
116	10
117	31
129	59
138	10
140	1
143	16
157	37
171	16
183	29
184	40
200	152
201	274
202	4
256	28
