Mass spectrum: 2,7-BIS(PENTAMETHYLDISILANYL)NAPHTALENE; EI-MS
Formula: C20H36Si4
Exact mass: 388.18941
Instrument type: EI-MS
m/z	relative intensity
73	191
116	999
117	128
118	64
131	85
227	521
228	117
229	43
257	245
258	64
259	11
315	351
316	106
317	43
373	21
388	426
389	170
390	74
391	21
