Mass spectrum: DIMETHYL ISOPHTHALATE; EI-MS
Formula: C10H10O4
Exact mass: 194.05791
Instrument type: EI-MS
m/z	relative intensity
15	72
29	41
30	12
38	14
39	14
50	114
51	21
52	20
59	22
63	17
64	13
66	31
74	60
75	97
76	171
77	78
92	37
103	85
104	65
105	16
107	20
119	60
120	77
135	244
136	24
149	20
163	999
164	102
165	12
193	23
194	281
195	33
