Mass spectrum: 2-NATHTHALENEACETIC ACID; EI-MS
Formula: C12H10O2
Exact mass: 186.06808
Instrument type: EI-MS
m/z	relative intensity
51	12
62	17
63	41
65	17
78	12
89	26
109	12
114	11
115	175
116	43
124	22
127	12
143	11
144	999
145	113
186	122
187	16
