Mass spectrum: 2,2-DIMETHYL-4-(TRIMETHYLSILYL)METHYL-5-HEXEN-3-ONE; EI-MS
Formula: C12H24OSi
Exact mass: 212.15964
Instrument type: EI-MS
m/z	relative intensity
39	27
41	111
43	35
44	26
45	115
57	584
58	43
59	50
73	999
74	124
75	224
85	87
97	35
127	117
141	23
143	171
144	26
155	303
156	53
157	20
158	67
197	38
212	3
