Mass spectrum: 1,2-DIBUTYL-1,2-DIMETHYLDISILANE (1,2-D2); EI-MS
Formula: C10H26Si2
Exact mass: 202.1573
Instrument type: EI-MS
m/z	relative intensity
27	67
28	20
29	100
31	27
39	27
41	40
43	380
44	167
45	287
46	420
47	47
55	47
56	20
57	27
58	147
59	700
60	400
61	40
69	20
71	80
72	999
73	333
74	200
75	27
76	20
77	20
85	153
86	93
87	80
88	107
89	87
90	153
91	187
92	33
99	27
100	273
101	200
102	267
103	53
104	40
105	33
115	40
118	13
119	20
122	13
147	27
204	173
205	27
206	13
