Mass spectrum: 5,6-BENZO-1,1,4,4-TETRAETHYL-1,4-DISILACYCLOHEX-5-ENE; EI-MS
Formula: C16H28Si2
Exact mass: 276.17295
Instrument type: EI-MS
m/z	relative intensity
53	84
54	11
55	95
56	21
57	221
58	84
59	600
60	32
61	11
67	21
68	32
69	11
79	21
80	32
81	432
82	53
87	63
95	263
96	116
97	21
104	11
105	95
107	42
108	32
109	158
110	42
119	11
130	21
131	158
132	42
133	84
134	32
135	84
136	21
145	21
147	32
149	42
158	32
159	158
160	53
161	95
162	53
163	158
164	32
177	21
189	42
190	32
191	284
192	63
193	11
217	11
218	21
219	632
220	147
221	147
222	42
245	21
246	53
248	999
249	305
250	11
251	32
274	11
275	42
276	95
277	32
