Mass spectrum: TOLCHLOPHOS-METHYL; EI-MS
Name: O-2,6-DICHLORO-PARA-TOLYL O,O-DIMETHYL PHOSPHOROTHIOATE
Formula: C9H11Cl2O3PS
Exact mass: 299.95436
Instrument type: EI-MS
m/z	relative intensity
47	17
79	38
93	74
109	40
125	194
173	15
250	61
252	24
265	999
266	111
267	378
268	40
269	23
300	2
