Mass spectrum: 3-PHENYLPROPIONIC ACID; EI-MS
Formula: C9H10O2
Exact mass: 150.06808
Instrument type: EI-MS
m/z	relative intensity
43	16
65	34
77	31
78	11
79	45
91	999
92	90
103	3
104	414
105	155
106	15
107	1
131	15
132	13
150	497
151	57
