Mass spectrum: 13-OXONEOCEMBRENE; EI-MS
Formula: C20H30O
Exact mass: 286.22967
Instrument type: EI-MS
m/z	relative intensity
41	814
42	68
43	254
51	3
53	441
54	169
55	475
56	5
57	119
65	119
66	51
67	61
68	797
69	254
70	17
71	7
77	254
78	51
79	475
80	28
81	491
82	847
83	186
84	3
85	15
91	373
92	102
93	86
94	339
95	322
96	68
97	5
105	203
106	68
107	999
108	37
109	254
110	51
111	17
119	15
120	136
121	508
122	398
123	29
124	8
131	8
133	102
134	15
135	220
136	85
137	51
138	1
145	34
146	8
147	153
148	8
149	119
150	85
151	51
161	7
162	51
163	34
164	17
173	3
175	102
176	42
177	34
189	7
190	17
203	51
227	42
228	2
243	17
258	70
271	17
286	22
287	51
