Mass spectrum: 4,7-DI(4-METHOXYPHENYL)-6-(2-METHOXYPHENYL)-1,2,5-THIADIAZOLO(3,4-C)PYRIDINE; EI-MS
Formula: C26H21N3O3S
Exact mass: 455.13036
Instrument type: EI-MS
m/z	relative intensity
30	66
33	168
39	81
41	100
43	128
44	112
55	132
57	118
69	71
91	159
101	89
103	157
132	68
161	72
227	67
265	80
333	121
334	82
337	95
348	330
349	102
350	72
395	73
424	105
454	138
455	999
456	379
457	97
