Mass spectrum: 2-PHENOXYETHANOL; EI-MS
Formula: C8H10O2
Exact mass: 138.06808
Instrument type: EI-MS
m/z	relative intensity
27	25
39	59
45	81
50	2
51	81
55	20
65	55
66	9
77	253
78	25
79	44
87	2
94	999
95	164
107	75
138	36
139	27
