Mass spectrum: 4-AMINO-1,5-DIMETHYL-2-PHENYL-4-PYRAZOLIN--3-ONE; EI-MS
Formula: C11H13N3O
Exact mass: 203.10586
Instrument type: EI-MS
m/z	relative intensity
41	20
42	277
43	14
50	14
51	57
52	17
53	11
54	45
55	35
56	999
57	661
58	25
63	17
64	28
65	24
66	10
67	16
77	118
78	13
82	11
83	225
84	563
85	30
91	34
92	14
93	51
109	14
119	53
120	16
201	14
202	57
203	556
204	76
