Mass spectrum: GLYCINE ETHYL ESTER HYDROCHLORIDE; EI-MS
Formula: C4H10ClNO2
Exact mass: 139.04001
Instrument type: EI-MS
m/z	relative intensity
14	17
25	18
27	69
28	19
29	44
30	999
31	29
35	37
36	199
37	14
38	78
40	12
42	25
43	15
45	23
46	14
60	29
74	19
104	65
