Mass spectrum: PHENANTHRENE; EI-MS
Formula: C14H10
Exact mass: 178.07825
Instrument type: EI-MS
m/z	relative intensity
51	12
62	11
63	37
74	16
75	48
76	165
87	22
88	123
89	164
126	11
139	11
150	37
151	66
152	65
174	16
175	22
176	153
177	91
178	999
179	159
180	13
184	12
