Mass spectrum: 1-(2,3-DIMETHOXYPHENYL)ETHANOL; EI-MS
Formula: C10H14O3
Exact mass: 182.09429
Instrument type: EI-MS
m/z	relative intensity
43	156
45	11
65	13
77	51
78	16
79	29
81	14
91	26
92	12
93	13
94	11
95	18
96	12
103	11
105	24
106	63
107	57
108	58
109	45
110	13
119	12
120	14
121	30
122	29
123	21
124	148
125	17
133	12
134	16
135	137
136	21
137	257
138	32
139	563
140	51
149	34
150	26
151	50
152	105
153	16
165	28
166	14
167	999
168	101
169	12
172	11
181	16
182	739
183	84
