Mass spectrum: 4-METHYLPENTYL BENZOATE; EI-MS
Formula: C13H18O2
Exact mass: 206.13068
Instrument type: EI-MS
m/z	relative intensity
27	91
29	53
39	77
41	237
42	62
43	246
50	51
51	183
52	12
53	12
55	74
56	423
57	28
69	160
75	11
76	27
77	548
78	48
79	77
83	27
84	311
85	19
105	999
106	84
122	111
123	799
124	63
163	14
