Mass spectrum: 3-HYDROXY-6-METHOXY-2-PHENYL-4H-1-BENZOPYRAN-4-ONE; EI-MS
Name: 6-METHOXYFLAVONOL
Formula: C16H12O4
Exact mass: 268.07356
Instrument type: EI-MS
m/z	relative intensity
77	14
79	12
105	52
107	40
115	10
122	10
135	74
141	36
150	30
151	13
168	16
169	18
181	40
197	41
211	80
212	12
224	20
225	10
238	24
239	39
240	88
241	14
267	487
268	999
269	183
270	24
