Mass spectrum: 1,2-DIMETHYLTETRAPHENYLDISILANE; EI-MS
Formula: C26H26Si2
Exact mass: 394.1573
Instrument type: EI-MS
m/z	relative intensity
54	55
67	14
69	14
79	35
91	21
93	77
103	14
105	254
106	21
119	77
155	14
165	42
180	14
181	70
182	14
195	70
196	14
197	999
198	106
199	42
394	79
395	30
396	10
