Mass spectrum: 3H,4H-3-BENZYLPYRRO(1,2-D)(1,2,4)TRIAZIN-4-ONE; EI-MS
Formula: C13H11N3O
Exact mass: 225.09021
Instrument type: EI-MS
m/z	relative intensity
50	67
51	240
52	62
56	21
62	14
63	55
64	34
65	279
66	27
76	15
77	86
78	46
79	19
89	32
90	19
91	999
92	92
93	14
94	127
104	23
105	26
106	15
121	41
132	404
133	40
169	16
183	11
196	26
197	36
224	16
225	241
226	37
