Mass spectrum: DICHLORODI(PARA-TOLYL)SILANE; EI-MS
Formula: C14H14Cl2Si
Exact mass: 280.02418
Instrument type: EI-MS
m/z	relative intensity
50	53
51	85
52	21
53	32
63	426
65	628
76	21
77	21
89	181
90	181
91	999
92	117
115	32
121	128
122	96
123	32
125	11
128	11
139	11
152	43
153	53
154	11
155	11
165	138
166	64
167	181
168	21
178	21
179	32
181	138
182	638
183	96
189	181
190	43
191	128
192	11
193	11
229	55
230	15
231	19
243	17
244	11
245	26
265	30
267	17
280	89
281	36
282	64
283	21
284	13
