Mass spectrum: BENZIL; EI-MS
Formula: C14H10O2
Exact mass: 210.06808
Instrument type: EI-MS
m/z	relative intensity
50	65
51	207
74	11
76	15
77	416
78	37
105	999
106	78
210	37
