Mass spectrum: 4-ETHOXYCARBONYL-5-METHYL-2-(PARA-TOLYL)PERHYDROPYRROLO(3,4-C)PYRROLE-1,3-DIONE (3A,4-TRANS); EI-MS
Name: (4R)-4-ETHOXYCARBONYL-5-METHYL-2-(PARA-TOLYL)PERHYDROPYRROLO(3,4-C)PYRROLE-1,3-DIONE
Formula: C17H20N2O4
Exact mass: 316.14231
Instrument type: EI-MS
m/z	relative intensity
39	36
41	50
42	70
65	19
67	126
68	12
77	14
78	11
80	18
81	24
82	433
83	23
90	10
91	12
104	28
105	15
122	19
132	43
133	47
243	999
244	165
245	17
316	25
