Mass spectrum: 2,2'-METHYLIMINODIETHANOL; EI-MS
Name: METHYL-DIETHANOLAMINE
Formula: C5H13NO2
Exact mass: 119.09463
Instrument type: EI-MS
m/z	relative intensity
27	40
28	15
29	31
30	2
31	25
41	24
42	160
43	7
44	756
45	290
56	49
57	3
58	64
70	29
74	42
87	8
88	999
89	88
119	34
130	44
