Mass spectrum: ALPHA-SELINENE; EI-MS
Formula: C15H24
Exact mass: 204.1878
Instrument type: EI-MS
m/z	relative intensity
41	850
42	60
43	230
51	6
52	40
53	380
54	40
55	57
56	40
57	80
65	270
66	6
67	530
68	110
69	340
70	4
77	400
78	90
79	700
80	15
81	870
82	130
83	80
91	77
92	190
93	999
94	280
95	53
96	80
97	80
103	65
104	4
105	855
106	240
107	790
108	36
109	470
110	80
115	65
117	9
118	40
119	455
120	230
121	32
122	260
123	230
124	40
131	13
132	40
133	570
134	180
135	17
136	80
137	40
145	90
146	4
147	325
148	130
149	130
161	61
162	215
175	210
176	60
189	55
190	90
204	680
205	155
