Mass spectrum: 1-METHYL-4-(5-METHOXYCARBONYLHEXANOYL)PIPERAZINE; EI-MS
Formula: C13H24N2O3
Exact mass: 256.17869
Instrument type: EI-MS
m/z	relative intensity
41	70
42	110
43	150
44	9
55	80
56	160
57	110
58	33
69	80
70	999
71	130
83	38
99	380
101	90
126	80
157	5
199	60
225	90
256	80
