Mass spectrum: 1,1,1-TRIMETHYLDISILANE; EI-MS
Formula: C3H12Si2
Exact mass: 104.04775
Instrument type: EI-MS
m/z	relative intensity
43	59
44	10
45	59
59	29
69	44
70	10
71	10
72	10
73	999
74	88
75	40
81	10
83	10
84	10
85	51
86	22
87	140
88	22
89	199
90	22
91	10
99	10
100	10
101	29
102	169
103	154
104	103
105	22
