Mass spectrum: TRIMETHYLCHLOROSILANE; EI-MS
Formula: C3H9ClSi
Exact mass: 108.0162
Instrument type: EI-MS
m/z	relative intensity
63	62
65	61
67	17
72	13
73	268
74	24
75	12
77	16
78	23
79	29
92	14
93	999
94	83
95	378
96	27
97	12
108	102
110	38
