Mass spectrum: ISOPENTYL 3-METHYLPENTANOATE; EI-MS
Formula: C11H22O2
Exact mass: 186.16198
Instrument type: EI-MS
m/z	relative intensity
27	106
29	159
39	87
41	268
42	118
43	559
44	18
45	15
53	19
55	249
56	46
57	66
60	48
61	30
69	60
70	999
71	520
72	28
73	17
87	46
99	366
100	26
101	13
115	16
116	11
117	103
130	12
143	14
