Mass spectrum: (+-)-DIHYDROYASHABUSHIKETOL; EI-MS
Name: 5-HYDROXY-1,7-DIPHENYL-3-HEPTANONE
Formula: C19H22O2
Exact mass: 282.16198
Instrument type: EI-MS
m/z	relative intensity
32	62
39	107
41	68
43	95
52	78
65	143
77	189
78	148
79	132
91	999
92	151
103	118
104	240
105	485
117	96
130	45
131	66
133	191
134	54
146	18
148	34
159	62
160	47
173	16
177	34
264	185
265	39
282	61
283	17
