Mass spectrum: TRIETHYL ORTHOACETATE; EI-MS
Name: 1,1,1-TRIETHOXYETHANE
Formula: C8H18O3
Exact mass: 162.12559
Instrument type: EI-MS
m/z	relative intensity
13	27
14	98
15	266
17	43
18	133
19	31
25	24
26	153
27	476
28	114
29	440
30	64
31	837
32	19
39	10
41	30
42	371
43	999
44	43
45	478
46	130
60	283
61	174
70	64
72	11
73	39
87	16
88	34
89	46
105	11
116	105
117	24
