Mass spectrum: 1,2-EPOXY-3-PHENYL-PROPANE; EI-MS
Formula: C9H10O
Exact mass: 134.07316
Instrument type: EI-MS
m/z	relative intensity
37	22
38	75
39	467
40	33
41	101
42	27
43	64
49	11
50	244
51	564
52	174
53	49
55	28
61	15
62	71
63	236
64	52
65	446
74	68
75	62
76	76
77	522
78	753
79	169
87	13
89	100
90	45
91	999
92	179
102	95
103	477
104	838
105	533
106	76
115	52
116	39
117	45
118	14
119	46
133	40
134	432
135	43
