Mass spectrum: 1,1,2,2,5,5,6,6-OCTETHYL-1,2,5,6-TETRASILACYCLOOCTA-3,7-DIYNE; EI-MS
Formula: C20H40Si4
Exact mass: 392.22071
Instrument type: EI-MS
m/z	relative intensity
43	138
45	117
53	53
55	234
57	362
59	999
60	74
67	74
68	11
69	181
71	85
73	85
79	21
80	11
81	383
83	713
85	362
87	660
89	32
90	21
91	11
93	181
95	138
97	283
98	266
100	21
101	31
103	11
104	31
105	53
107	53
109	340
111	766
112	553
115	138
117	11
118	21
119	32
121	32
123	21
125	245
126	340
129	21
133	21
135	117
137	245
139	298
140	283
142	43
143	32
147	21
149	32
151	43
153	85
154	138
156	11
157	21
161	53
162	11
163	85
164	32
165	181
166	32
167	223
168	117
169	128
170	21
171	21
175	11
177	21
179	43
181	43
182	11
183	43
185	11
189	32
191	85
192	32
193	181
194	64
195	564
196	170
197	170
198	32
199	11
205	11
207	32
209	32
210	11
211	21
217	11
219	53
220	21
221	181
222	53
223	489
224	138
225	117
226	21
237	21
247	32
248	11
249	85
250	21
251	372
252	128
253	85
254	11
265	11
275	21
277	64
278	21
279	543
280	202
281	106
282	32
305	32
306	11
307	745
308	309
309	170
310	32
333	11
334	11
335	713
336	298
337	170
338	32
363	362
364	149
365	170
366	21
392	968
393	404
394	202
396	11
