Mass spectrum: ISOVANILLIN; EI-MS
Name: 3-HYDROXY-4-METHOXYBENZALDEHYDE
Formula: C8H8O3
Exact mass: 152.04734
Instrument type: EI-MS
m/z	relative intensity
14	23
15	171
18	15
26	34
27	130
29	262
30	12
31	25
37	29
38	68
39	135
41	45
49	21
50	123
51	228
52	225
53	152
54	18
55	64
61	26
62	62
63	106
64	23
65	112
66	16
67	50
74	15
75	12
77	64
79	91
80	60
81	398
82	22
91	14
93	25
95	32
108	81
109	211
110	17
119	19
123	139
124	25
136	18
137	48
151	816
152	999
153	183
154	18
