Mass spectrum: 2',4',6'-TRIMETHOXYACETOPHENONE; EI-MS
Formula: C11H14O4
Exact mass: 210.08921
Instrument type: EI-MS
m/z	relative intensity
109	11
137	30
152	52
165	17
180	78
181	12
193	22
195	999
196	119
197	15
210	202
211	26
212	4
