Mass spectrum: ANTHRAFRAVIC ACID; EI-MS
Name: 2,6-DIHYDROXYANTHRAQUINONE
Formula: C14H8O4
Exact mass: 240.04226
Instrument type: EI-MS
m/z	relative intensity
18	13
28	18
63	30
65	25
75	22
76	19
77	104
78	26
89	24
92	72
93	17
101	75
102	114
103	19
105	11
106	16
113	19
114	12
115	19
120	25
121	12
125	11
126	127
128	431
129	70
130	28
131	14
137	16
138	34
139	180
140	35
154	22
155	586
156	108
166	11
167	42
168	51
183	144
184	526
185	76
195	51
196	52
211	112
212	492
213	72
223	130
224	86
225	11
239	83
240	999
241	153
242	23
