Mass spectrum: 2,5-DIMETHYLCYCLOPENTANONE; EI-MS
Formula: C7H10O
Exact mass: 110.07316
Instrument type: EI-MS
m/z	relative intensity
27	300
28	140
29	122
39	304
40	88
41	491
42	999
43	27
53	67
54	48
55	440
56	364
57	50
58	72
68	163
69	420
70	135
79	39
83	90
84	118
94	39
97	148
112	362
113	49
