Mass spectrum: 4 NITROBENZYL 2-METHYLBENZOATE; EI-MS
Formula: C15H13NO4
Exact mass: 271.08446
Instrument type: EI-MS
m/z	relative intensity
39	83
40	12
41	24
45	11
50	28
51	72
52	32
53	10
62	15
63	97
64	53
65	231
66	16
75	14
76	26
77	120
78	212
79	117
89	289
90	287
91	536
92	51
105	29
106	61
107	57
118	51
119	538
120	73
121	10
133	151
134	14
135	999
136	213
137	137
165	11
180	10
210	11
226	13
253	115
254	101
255	17
271	224
272	33
