Mass spectrum: HEXAMETHYLDISILANE; EI-MS
Formula: C6H18Si2
Exact mass: 146.0947
Instrument type: EI-MS
m/z	relative intensity
28	11
45	11
58	11
72	27
73	999
74	87
75	38
115	10
131	245
132	42
133	23
146	178
147	33
148	17
