Mass spectrum: N-ACETYLGLYCINE; EI-MS
Name: ACETAMIDOACETIC ACID
Formula: C4H7NO3
Exact mass: 117.04259
Instrument type: EI-MS
m/z	relative intensity
14	16
15	77
27	12
28	123
29	43
30	999
31	34
42	70
43	734
44	27
45	50
56	74
57	33
72	580
73	315
74	59
76	55
99	161
100	18
117	60
118	267
119	14
