Mass spectrum: PARA-ACETOXYBENZOIC ACID METHYL ESTER; EI-MS
Name: METHYL PARA-ACETOXYBENZOATE
Formula: C10H10O4
Exact mass: 194.05791
Instrument type: EI-MS
m/z	relative intensity
15	19
29	10
38	31
39	49
41	11
42	14
43	360
50	16
51	10
52	10
53	14
62	20
63	69
64	55
65	105
66	14
75	12
77	10
92	52
93	82
95	19
120	20
121	999
122	82
123	29
135	11
151	27
152	577
153	50
163	32
194	109
195	19
