Mass spectrum: 4,6-BIS(ETHYLAMINO)-1,3,5-TRIAZIN-2(1H)-ONE; EI-MS
Formula: C7H13N5O
Exact mass: 183.11201
Instrument type: EI-MS
m/z	relative intensity
15	21
18	16
27	68
28	117
29	82
30	69
44	397
45	12
50	75
56	13
58	13
59	14
67	11
69	195
70	74
71	93
83	10
84	44
85	57
86	65
95	10
111	77
113	43
114	58
125	36
126	44
139	67
140	324
141	39
154	84
155	561
156	116
168	267
182	98
183	999
184	315
185	27
