Mass spectrum: BUTYL LACTATE; EI-MS
Formula: C7H14O3
Exact mass: 146.09429
Instrument type: EI-MS
m/z	relative intensity
15	13
27	89
28	31
29	19
31	18
39	31
41	150
42	1
43	45
44	21
45	999
46	3
55	29
56	121
57	255
58	1
75	34
85	84
91	16
102	10
