Mass spectrum: 3H,4H-3-METHYLPYRRO(1,2-D)(1,2,4)TRIAZIN-4-ONE; EI-MS
Formula: C7H7N3O
Exact mass: 149.05891
Instrument type: EI-MS
m/z	relative intensity
51	224
52	79
53	18
56	68
58	14
61	14
63	23
64	69
65	92
66	47
67	31
74	17
75	19
76	12
77	16
78	250
79	140
80	40
91	14
92	39
93	110
94	163
95	12
105	26
106	80
107	16
119	10
120	48
121	103
122	11
148	55
149	999
150	81
