Mass spectrum: 3,4-DIMETHOXYBENZOIC ACID METHYL ESTER; EI-MS
Formula: C10H12O4
Exact mass: 196.07356
Instrument type: EI-MS
m/z	relative intensity
59	26
77	26
79	16
81	12
91	11
93	18
94	29
95	12
107	15
109	11
121	38
122	21
123	14
125	50
136	11
137	38
149	23
153	22
165	567
166	61
181	85
196	999
197	117
198	15
