Mass spectrum: ALLYL 2-METHYLBUTYRATE; EI-MS
Formula: C8H14O2
Exact mass: 142.09938
Instrument type: EI-MS
m/z	relative intensity
26	15
27	107
29	254
38	10
39	175
41	533
42	22
43	14
45	13
55	61
56	55
57	999
58	63
69	42
73	10
85	336
86	17
114	48
