Mass spectrum: DIMETHYL (3R*,3AS*,5S*,6S*)-3-METHYL-2,3,3A,4,5,6-HEXAHYDROINDEN-1(H)-ONE-5,6-DICARBOXYLATE; EI-MS
Formula: C14H18O5
Exact mass: 266.11542
Instrument type: EI-MS
m/z	relative intensity
38	171
40	234
41	114
42	72
51	122
52	92
53	67
55	66
59	999
63	48
65	106
66	63
69	54
76	43
77	469
78	380
79	193
91	353
92	63
93	113
94	41
103	111
104	59
105	586
106	132
115	45
119	117
131	68
133	70
136	78
137	66
145	15
147	25
148	271
149	52
150	46
163	45
164	79
165	54
166	15
175	15
177	14
191	24
206	134
207	61
234	46
235	29
266	30
267	14
