Mass spectrum: ANTI-4,5,8-TRIFLUORO-6-METHOXY-12,14,16-TRIMETHYL(2.2)METACYCLOPHANE; EI-MS
Formula: C20H21F3O
Exact mass: 334.15445
Instrument type: EI-MS
m/z	relative intensity
41	67
77	67
91	191
105	77
115	131
116	84
128	68
129	99
130	84
131	228
145	301
146	165
158	233
167	76
286	69
287	215
288	142
298	78
302	151
303	201
318	999
319	202
320	26
333	699
334	136
335	21
