Mass spectrum: 4-BROMOPHENYLBORIC ACID; EI-MS
Name: 4-BROMOBENZENEBORIC ACID
Formula: C6H6BBrO2
Exact mass: 199.96442
Instrument type: EI-MS
m/z	relative intensity
17	45
18	219
26	12
29	17
31	33
37	29
38	47
39	31
44	72
45	285
49	30
50	275
51	290
52	32
53	32
59	25
61	12
62	13
63	12
65	14
73	40
74	156
75	184
76	199
77	999
78	126
79	27
80	45
