Mass spectrum: 2-MERCAPTOBENZIMIDAZOLE; EI-MS
Formula: C7H6N2S
Exact mass: 150.02517
Instrument type: EI-MS
m/z	relative intensity
39	39
51	23
52	34
63	68
64	52
65	78
75	104
78	29
90	42
91	46
92	52
96	57
105	34
106	74
118	89
122	87
123	58
149	65
150	999
151	94
152	59
