Mass spectrum: 1,1,3,3-TETRAMETHYLBUTYLAMINE; EI-MS
Formula: C8H19N
Exact mass: 129.15175
Instrument type: EI-MS
m/z	relative intensity
15	18
18	35
27	34
28	10
29	47
30	29
39	43
41	101
42	86
43	43
55	28
56	30
57	91
58	999
59	38
72	19
114	32
