Mass spectrum: MEPRONIL; EI-MS
Name: 3'-ISOPROPOXY-ORTHO-TOLUANILIDE
Formula: C17H19NO2
Exact mass: 269.14158
Instrument type: EI-MS
m/z	relative intensity
91	90
118	11
119	999
120	86
210	24
227	54
269	266
270	52
