Mass spectrum: CARBAZOLE; EI-MS
Formula: C12H9N
Exact mass: 167.0735
Instrument type: EI-MS
m/z	relative intensity
17	11
18	36
39	20
50	15
51	16
62	18
63	32
69	18
70	14
74	19
75	17
76	11
77	11
83	13
84	74
86	12
87	16
88	15
89	18
113	24
114	15
115	18
138	14
139	112
140	79
141	12
164	19
165	15
166	153
167	999
168	135
