Mass spectrum: N-(BENZYLOXYCARBONYL)-(S)-PROLINE METHYL ESTER; EI-MS
Formula: C14H17NO4
Exact mass: 263.11576
Instrument type: EI-MS
m/z	relative intensity
39	36
41	48
42	30
51	19
59	18
63	16
65	94
68	20
69	19
70	28
77	16
89	24
90	17
91	999
92	107
102	28
128	48
160	307
161	45
204	276
205	44
263	55
264	11
