Mass spectrum: PHENYLMALONIC ACID; EI-MS
Formula: C9H8O4
Exact mass: 180.04226
Instrument type: EI-MS
m/z	relative intensity
39	23
41	14
44	342
45	12
51	14
63	21
65	123
77	29
79	34
89	93
90	150
91	999
92	182
118	182
119	16
136	458
137	39
