Mass spectrum: DIMETHYLBENZYLSILANE; EI-MS
Formula: C9H14Si
Exact mass: 150.08648
Instrument type: EI-MS
m/z	relative intensity
28	13
43	66
44	11
58	110
59	999
60	88
61	31
72	110
73	13
91	40
107	40
119	18
121	44
134	18
135	272
136	49
137	13
149	71
150	371
151	57
152	27
