Mass spectrum: 1-BROMO-2-CHLOROETHANE; EI-MS
Formula: C2H4BrCl
Exact mass: 141.91849
Instrument type: EI-MS
m/z	relative intensity
25	11
26	108
27	488
28	112
31	12
35	11
49	32
51	10
61	41
62	58
63	999
64	38
65	298
79	30
80	13
81	36
82	14
93	51
95	47
105	15
106	15
107	65
108	12
109	48
142	110
144	145
146	34
