Mass spectrum: DIMETHYLPHENYLSILANE; EI-MS
Formula: C8H12Si
Exact mass: 136.07083
Instrument type: EI-MS
m/z	relative intensity
43	126
58	684
59	67
60	25
69	12
91	15
95	27
105	62
106	20
107	25
119	25
120	47
121	999
122	128
123	44
134	14
135	291
136	613
137	101
138	32
