Mass spectrum: METHYL 5-ETHYL-3-METHYL-2-PHENYL-1-PYRROLINE-4-CARBOXYLATE (3,4-TRANS-4,5-CIS); EI-MS
Name: METHYL (4R,5R)-5-ETHYL-3-METHYL-2-PHENYL-1-PYRROLINE-4-CARBOXYLATE
Formula: C15H19NO2
Exact mass: 245.14158
Instrument type: EI-MS
m/z	relative intensity
39	570
41	552
42	145
43	295
51	463
52	151
53	240
55	277
59	250
63	162
67	160
69	290
76	189
77	640
78	143
89	162
91	361
103	296
104	999
105	156
115	301
116	146
128	162
129	204
130	794
131	188
132	30
141	24
142	33
143	55
144	69
145	232
146	72
147	60
154	35
155	24
156	305
157	132
158	88
170	65
174	38
184	43
186	179
187	24
216	63
217	37
230	25
245	80
246	26
