Mass spectrum: (1R,2R,(4A)S,(8A)R)-1,2,(4A),5,6,7,8,(8A)-OCTAHYDRO-2-METHYLNAPHTHALEN-1-METHANOL; EI-MS
Formula: C12H20O
Exact mass: 180.15142
Instrument type: EI-MS
m/z	relative intensity
41	83
55	65
67	81
77	70
79	145
81	215
91	157
93	132
95	54
105	171
107	127
119	111
120	57
133	65
147	132
149	999
150	156
162	96
180	129
