Mass spectrum: DL-MANDERIC ACID; EI-MS
Formula: C8H8O3
Exact mass: 152.04734
Instrument type: EI-MS
m/z	relative intensity
28	10
29	9
44	6
51	5
75	6
77	118
78	20
79	369
80	29
89	8
90	33
91	8
105	35
106	32
107	999
108	92
109	8
152	104
153	12
