Mass spectrum: ORTHO-IODONITROBENZENE; EI-MS
Formula: C6H4INO2
Exact mass: 248.92867
Instrument type: EI-MS
m/z	relative intensity
30	41
39	28
50	32
63	62
64	17
74	12
75	19
76	102
77	14
92	358
93	26
94	13
122	24
152	15
191	38
203	27
204	24
219	117
220	24
233	541
234	45
249	999
250	135
251	11
