Mass spectrum: DIMETHYLSILACYCLOPENTANE (1,1-D6); EI-MS
Formula: C6H14Si
Exact mass: 114.08648
Instrument type: EI-MS
m/z	relative intensity
46	16
48	13
62	43
63	15
64	378
65	79
66	19
73	10
74	134
75	16
76	13
78	31
82	18
91	43
92	999
93	96
94	39
100	56
101	11
102	328
103	35
104	13
119	16
120	261
121	38
122	13
