Mass spectrum: 2,5-PYRIDINEDICARBOXYLIC ACID; EI-MS
Name: ISOCINCHOMERONIC ACID
Formula: C7H5NO4
Exact mass: 167.02186
Instrument type: EI-MS
m/z	relative intensity
27	11
28	11
38	14
39	37
44	15
45	68
49	15
50	75
51	115
52	62
53	21
66	17
67	29
68	30
75	17
76	39
77	99
78	118
79	41
80	29
94	63
95	12
96	39
105	44
106	46
122	118
123	811
124	93
150	278
151	25
168	999
169	85
170	12
