Mass spectrum: 2,4-PYRIDINEDICARBOXYLIC ACID; EI-MS
Formula: C7H5NO4
Exact mass: 167.02186
Instrument type: EI-MS
m/z	relative intensity
16	13
17	186
18	999
19	65
28	11
38	12
39	29
44	18
45	51
49	14
50	71
51	100
52	50
53	12
65	12
66	39
67	17
68	23
75	17
76	38
77	72
78	91
79	28
93	35
94	46
96	16
105	22
106	26
122	57
123	798
124	58
137	37
150	29
168	15
