Mass spectrum: (+-)-GINGEROL; EI-MS
Name: 5-HYDROXY-1-(4-HYDROXY-3-METHOXYPHENYL)-3-DECANONE
Formula: C17H26O4
Exact mass: 294.18311
Instrument type: EI-MS
m/z	relative intensity
40	91
42	79
55	124
91	79
137	999
138	132
150	549
151	162
179	94
294	549
295	107
