Mass spectrum: 2,6-DIMETHYL-5-HEPTEN-2-OL; EI-MS
Formula: C9H18O
Exact mass: 142.13577
Instrument type: EI-MS
m/z	relative intensity
27	131
28	25
29	102
31	14
39	154
40	33
41	598
42	4
43	426
44	11
45	13
51	1
53	69
54	11
55	169
56	14
57	34
58	28
59	999
60	3
67	211
68	165
69	567
70	4
71	60
72	10
79	10
81	7
82	26
83	19
84	17
95	4
109	774
110	65
124	338
125	3
127	17
