Mass spectrum: 2,4-PYRIDINEDICARBOXYLIC ACID; EI-MS
Formula: C7H5NO4
Exact mass: 167.02186
Instrument type: EI-MS
m/z	relative intensity
28	10
38	11
39	33
44	12
45	54
49	14
50	70
51	98
52	56
53	13
66	34
67	27
68	27
75	15
76	38
77	68
78	85
79	32
80	28
94	75
95	11
96	32
105	25
106	41
122	86
123	662
124	89
137	18
138	23
150	255
151	23
168	999
169	86
170	12
