Mass spectrum: PENTAMETHYL(PHENYLETHYNYL)DISILANE; EI-MS
Formula: C13H20Si2
Exact mass: 232.11035
Instrument type: EI-MS
m/z	relative intensity
53	96
55	32
57	16
58	32
59	32
67	16
72	27
73	649
74	48
75	11
77	21
91	11
103	16
105	90
117	11
129	106
130	11
131	59
135	32
143	37
144	11
145	16
158	64
159	638
160	96
161	16
217	999
218	223
219	80
232	362
233	80
234	32
