Mass spectrum: 1,4-BIS(TRIMETHYLSILYL)-2,3-DIMETHYL-2-BUTENE; EI-MS
Formula: C12H28Si2
Exact mass: 228.17295
Instrument type: EI-MS
m/z	relative intensity
109	21
111	21
112	32
123	53
125	999
126	128
127	32
131	11
139	149
140	245
141	43
154	43
155	117
156	11
227	29
228	21
229	53
23	14
