Mass spectrum: 2',3'-DIMETHOXYACETOPHENONE; EI-MS
Formula: C10H12O3
Exact mass: 180.07864
Instrument type: EI-MS
m/z	relative intensity
43	130
77	120
78	14
79	22
91	22
92	34
94	12
95	12
105	37
107	54
108	11
109	37
119	21
120	23
121	49
122	175
123	18
133	17
135	27
137	26
147	18
149	13
150	50
151	35
161	14
162	48
163	39
165	999
166	96
167	12
180	515
181	56
182	6
