Mass spectrum: CHLOROBENZENE; EI-MS
Formula: C6H5Cl
Exact mass: 112.00798
Instrument type: EI-MS
m/z	relative intensity
26	32
27	31
35	17
36	14
37	73
38	117
39	49
49	55
50	286
51	317
52	25
56	35
57	11
60	16
61	22
62	19
63	19
72	11
73	52
74	108
75	93
76	65
77	639
78	44
84	12
85	15
86	14
112	999
113	69
114	321
115	22
