Mass spectrum: METHYL LACTATE; EI-MS
Formula: C4H8O3
Exact mass: 104.04734
Instrument type: EI-MS
m/z	relative intensity
15	12
27	22
29	20
33	15
43	41
44	14
45	999
46	2
59	16
61	31
89	16
104	6
