Mass spectrum: (4-METHOXYPHENYL)ACETIC ACID; EI-MS
Formula: C9H10O3
Exact mass: 166.06299
Instrument type: EI-MS
m/z	relative intensity
41	10
43	31
55	13
56	1
57	13
58	13
60	11
71	1
77	38
78	17
91	55
121	999
122	98
123	7
166	377
167	42
