Mass spectrum: DIMETHYL 4,11,17,24,27-PENTAOXOOCTACYCLO(12.12.1.0(3,12).0(3,25).0(5,10).0(12,16).0(16,25).0(18,23))HEPTACOSA-5,7,9,18,20,22-HEXAENE-1,14-DICARBOXYLATE; EI-MS
Formula: C31H22O9
Exact mass: 538.12638
Instrument type: EI-MS
m/z	relative intensity
290	52
295	96
322	211
353	51
354	231
355	51
418	72
446	178
447	85
474	56
478	85
479	77
506	426
507	217
508	58
538	999
539	343
540	87
