Mass spectrum: 1-METHYL-4-(5,9,13,17-TETRAMETHYL-18-HYDROXY-1-OXO-4,8,12,16-OCTADECATETRAEN-1-YL)-PIPERADINE; EI-MS
Formula: C27H48N2O2
Exact mass: 432.37158
Instrument type: EI-MS
m/z	relative intensity
41	121
42	82
43	159
44	55
55	232
56	221
57	317
58	394
67	104
69	149
70	485
71	106
81	339
83	219
85	95
93	79
95	116
97	135
98	746
99	416
100	113
101	797
127	196
135	68
142	124
155	96
166	134
209	999
210	295
211	79
223	55
277	839
278	234
431	94
432	678
433	220
