Mass spectrum: 6-NITROQUINOLINE; EI-MS
Formula: C9H6N2O2
Exact mass: 174.04293
Instrument type: EI-MS
m/z	relative intensity
30	34
40	10
47	21
51	41
52	55
53	13
61	14
62	30
63	49
64	12
74	79
75	116
76	44
77	84
78	15
87	15
88	13
89	59
90	12
98	26
99	27
100	45
101	223
102	118
116	349
117	35
127	64
128	608
129	68
144	44
174	999
175	113
