Mass spectrum: METHYL 2-(N-((4S)-4-(1,1-DIMETHYLETHYL)-2-OXAZOLIDINONE-3-CARBAMOYL)AMINO)-4-PENTENOATE; EI-MS
Formula: C14H22N2O5
Exact mass: 298.15287
Instrument type: EI-MS
m/z	relative intensity
144	90
156	19
177	21
213	20
239	436
240	61
257	999
258	128
265	72
266	42
267	162
268	65
269	282
270	30
271	71
273	33
297	41
298	88
