Mass spectrum: 2-METHOXYBENZYL BENZOATE; EI-MS
Formula: C15H14O3
Exact mass: 242.09429
Instrument type: EI-MS
m/z	relative intensity
27	14
39	37
40	15
41	17
42	12
43	17
50	30
51	110
52	27
63	17
65	79
76	18
77	274
78	74
79	12
89	21
90	26
91	464
92	72
93	37
94	17
105	342
106	32
107	71
109	32
119	48
120	34
121	272
122	41
137	999
138	92
242	310
243	51
