Mass spectrum: (+-)-YASHABUSHIKETOL; EI-MS
Name: 5-HYDROXY-1,7-DIPHENYL-1-HEPTEN-3-ONE
Formula: C19H20O2
Exact mass: 280.14633
Instrument type: EI-MS
m/z	relative intensity
32	206
41	50
43	140
51	63
57	53
66	52
77	201
78	84
91	407
92	117
102	55
103	376
104	193
105	179
116	54
117	109
129	50
130	82
131	999
132	149
133	95
134	66
145	135
146	161
148	61
171	60
175	216
176	42
262	103
280	316
281	72
