Mass spectrum: (E)-7,8-(1,1,2,2-TETRAMETHYL-1-SILA-1,3-PROPANEDIYL)-2-(PENTAMETHYLDISILANYL)-7-(TRIMETHYLSILYL)-NAPHTHALENE; EI-MS
Formula: C24H44Si4
Exact mass: 444.25201
Instrument type: EI-MS
m/z	relative intensity
41	14
43	32
45	117
58	32
59	170
73	999
75	32
86	170
99	75
114	117
116	596
117	75
118	43
131	85
169	14
183	21
227	149
228	32
257	96
258	21
315	32
388	15
