Mass spectrum: SILACYCLOHEXANE (2,2,6,6-D4); EI-MS
Formula: C5H12Si
Exact mass: 100.07083
Instrument type: EI-MS
m/z	relative intensity
42	11
43	26
44	121
45	113
46	113
47	36
57	20
58	20
59	38
60	122
61	92
62	35
71	26
72	93
73	215
74	999
75	243
76	263
77	28
78	13
85	18
86	14
87	31
88	13
89	17
100	30
101	52
102	99
103	160
104	621
105	89
106	30
