Mass spectrum: 2,2-DIMETHYLCYCLOPENTANONE-D6(METHYL); EI-MS
Formula: C7H12O
Exact mass: 112.08882
Instrument type: EI-MS
m/z	relative intensity
31	34
32	198
39	39
40	69
41	111
42	138
43	62
44	160
45	249
46	95
55	54
56	42
57	23
58	75
59	42
60	54
61	112
62	999
63	62
72	75
73	71
74	29
75	35
76	24
99	52
100	71
101	21
118	195
119	19
