Mass spectrum: 2-METHYL-1,2-DI-3-PYRIDYL-1-PROPANONE; EI-MS
Name: METYRAPONE
Formula: C14H14N2O
Exact mass: 226.11061
Instrument type: EI-MS
m/z	relative intensity
18	16
26	10
27	36
28	27
38	10
39	92
40	11
41	98
50	72
51	285
52	76
53	45
63	25
65	86
66	11
75	11
76	16
77	88
78	413
79	98
80	90
91	56
92	436
93	48
104	90
105	27
106	836
107	61
117	23
118	66
119	46
120	999
121	95
226	770
227	130
228	11
