Mass spectrum: 1,1,1,2-TETRAMETHYLDISILANE; EI-MS
Formula: C4H14Si2
Exact mass: 118.0634
Instrument type: EI-MS
m/z	relative intensity
28	14
29	32
31	32
42	21
43	188
44	32
45	142
46	10
53	16
55	18
57	15
58	15
59	83
69	33
70	13
71	13
72	16
73	999
74	92
75	39
81	12
85	21
86	10
87	12
101	38
102	31
103	132
104	22
105	9
116	24
117	32
118	96
119	17
