Mass spectrum: N-BENZYL-3-CYCLOHEXAENCARBONYLOXY-2,2-DIMETHYLPROPANAMIDE; EI-MS
Formula: C19H27NO3
Exact mass: 317.19909
Instrument type: EI-MS
m/z	relative intensity
28	198
29	52
32	78
41	182
55	267
56	181
65	58
73	97
83	359
91	524
106	999
107	109
129	109
206	497
207	120
317	27
