Mass spectrum: (E)-(4R*,5R*)-METHYL 4-METHANESULFONYLOXY-5-PHENYL-2-HEXENOATE; EI-MS
Formula: C14H18O5S
Exact mass: 298.08749
Instrument type: EI-MS
m/z	relative intensity
141	46
142	49
143	452
144	77
146	16
157	51
171	58
172	14
189	14
194	999
195	82
186	58
202	89
203	149
204	29
267	159
268	20
298	17
