Mass spectrum: TETRAETHOXYMETHANE; EI-MS
Formula: C9H20O4
Exact mass: 192.13616
Instrument type: EI-MS
m/z	relative intensity
15	63
19	75
26	44
27	318
28	57
29	848
30	54
31	138
41	14
42	10
43	85
44	29
45	242
46	11
47	145
63	999
64	13
75	27
91	558
92	21
102	17
103	14
119	260
120	16
147	921
148	76
