Mass spectrum: 4,4'-ISOPROPYLIDENEDIPHENOL; EI-MS
Formula: C15H16O2
Exact mass: 228.11503
Instrument type: EI-MS
m/z	relative intensity
41	27
51	15
55	17
63	16
65	40
76	14
77	27
82	11
84	10
90	20
91	67
94	11
95	13
97	13
99	76
100	10
106	38
107	39
114	24
115	15
119	171
120	26
135	48
152	12
165	17
169	15
197	18
198	14
212	20
213	999
214	159
215	16
228	289
229	49
