Mass spectrum: 3,7,11,15-TETRAMETHYLHEXADECANE-1,2,3-TRIOL; EI-MS
Formula: C20H42O3
Exact mass: 330.3134
Instrument type: EI-MS
m/z	relative intensity
27	37
28	20
29	122
31	24
39	32
41	301
42	56
43	902
44	138
45	75
53	20
55	538
56	143
57	999
58	261
59	87
61	124
62	22
67	70
68	64
69	804
70	139
71	880
72	66
73	18
74	12
75	33
79	22
80	21
81	184
82	77
83	716
84	135
85	401
86	27
87	93
88	140
93	44
94	23
95	180
96	50
97	647
98	83
99	170
101	39
103	11
104	11
105	834
106	37
107	22
109	158
110	64
111	554
112	64
113	130
118	32
119	20
121	42
123	109
124	45
125	353
126	69
127	96
135	20
137	65
138	21
139	160
140	35
141	47
149	23
151	24
153	78
155	33
161	22
165	21
167	32
169	48
179	15
181	23
195	22
250	39
263	22
269	211
270	38
281	65
282	16
312	8
315	12
