Mass spectrum: 1,3,5-TRIMETHOXYBENZENE; EI-MS
Formula: C9H12O3
Exact mass: 168.07864
Instrument type: EI-MS
m/z	relative intensity
65	13
69	12
77	11
78	40
79	24
93	15
95	40
107	19
108	45
109	85
110	22
122	11
124	31
125	74
137	23
138	57
139	460
140	41
167	95
168	999
169	108
170	11
