Mass spectrum: 2,6-DICHLOROBENZALDEHYDE; EI-MS
Formula: C7H4Cl2O
Exact mass: 173.96392
Instrument type: EI-MS
m/z	relative intensity
28	10
29	80
35	12
36	17
37	55
38	29
49	41
50	112
51	40
60	13
61	34
62	22
63	14
72	15
73	70
74	217
75	362
76	31
84	89
85	49
86	35
87	18
108	14
109	119
110	178
111	174
112	66
113	47
138	56
140	19
145	162
146	116
147	112
148	75
149	21
150	12
173	999
174	712
175	698
176	462
177	138
178	75
