Mass spectrum: BETA-HYDROXY-4-NITROBENZENEPROPANENITRILE; EI-MS
Formula: C9H8N2O3
Exact mass: 192.05349
Instrument type: EI-MS
m/z	relative intensity
27	20
28	30
29	28
30	62
38	20
39	58
40	43
41	46
42	25
46	21
50	87
51	153
52	46
62	16
63	37
64	11
65	37
66	67
68	10
74	34
75	41
76	58
77	200
78	147
79	12
89	13
91	30
92	11
94	136
101	20
102	11
104	22
105	114
106	133
107	17
122	59
128	19
136	17
150	25
151	12
152	999
153	77
193	10
