Mass spectrum: 2-(4-CYANOBENZOYL)TROPONE; EI-MS
Formula: C15H9NO2
Exact mass: 235.06333
Instrument type: EI-MS
m/z	relative intensity
39	61
50	104
51	259
52	35
74	50
75	118
76	78
77	283
78	38
103	384
104	44
106	247
130	175
151	33
178	60
179	207
180	35
181	37
206	999
207	203
235	493
236	92
