Mass spectrum: CIS-3-HEXENYL 2-ETHYLBUTYRATE; EI-MS
Formula: C12H22O2
Exact mass: 198.16198
Instrument type: EI-MS
m/z	relative intensity
27	113
29	127
39	104
41	272
42	41
43	415
53	46
54	51
55	217
56	13
67	584
68	29
69	18
70	19
71	540
72	24
81	41
82	999
83	95
99	175
117	22
