Mass spectrum: 2-NAPHTHOL; EI-MS
Name: 2-HYDROXYNAPHTHALENE
Formula: C10H8O
Exact mass: 144.05751
Instrument type: EI-MS
m/z	relative intensity
26	10
27	16
28	32
29	20
38	16
39	44
50	29
51	32
58	12
62	27
63	55
65	20
72	20
74	16
75	14
77	23
87	15
88	11
89	44
105	54
113	11
114	18
115	334
116	99
144	999
145	113
