Mass spectrum: 3',4'-DICHLOROACETOPHENONE; EI-MS
Formula: C8H6Cl2O
Exact mass: 187.97957
Instrument type: EI-MS
m/z	relative intensity
15	22
37	12
42	11
43	287
49	10
50	35
51	11
61	14
62	15
63	18
73	29
74	99
75	103
84	30
85	21
86	14
87	11
89	13
109	113
110	48
111	49
112	16
145	289
146	29
147	180
148	18
149	30
173	999
174	78
175	647
176	105
188	423
189	41
190	279
191	25
192	44
