Mass spectrum: ANTHRACENE; EI-MS
Formula: C14H10
Exact mass: 178.07825
Instrument type: EI-MS
m/z	relative intensity
63	10
150	11
151	10
152	13
167	10
176	23
177	28
178	999
179	164
180	13
