Mass spectrum: 1,1,1-TRIFLUOROACETONE; EI-MS
Formula: C3H3F3O
Exact mass: 112.0136
Instrument type: EI-MS
m/z	relative intensity
14	62
15	574
26	18
27	12
29	25
31	68
33	18
41	29
42	120
43	999
44	32
50	66
51	12
59	11
69	325
75	11
78	14
97	12
