Mass spectrum: N-ETHENYLPHTHALIMIDE; EI-MS
Formula: C10H7NO2
Exact mass: 173.04768
Instrument type: EI-MS
m/z	relative intensity
27	20
38	40
41	30
43	2
50	200
51	30
52	90
55	3
57	20
66	120
69	30
73	3
74	70
75	90
76	460
77	8
89	20
90	90
102	20
103	11
104	430
105	100
117	130
118	5
129	60
132	50
133	60
145	8
146	100
161	40
172	50
173	999
174	130
