Mass spectrum: BENZO(C)CINNOLINE; EI-MS
Formula: C12H8N2
Exact mass: 180.06875
Instrument type: EI-MS
m/z	relative intensity
27	12
38	20
39	50
50	56
51	46
52	14
61	19
62	47
63	125
64	10
74	87
75	96
76	133
77	18
85	10
86	37
87	61
88	12
98	43
99	38
100	26
101	14
102	40
111	14
113	15
125	29
126	155
127	17
149	13
150	182
151	345
152	999
153	131
180	909
181	128
