Mass spectrum: 2,6-DIMETHOXYBENZOIC ACID METHYL ESTER; EI-MS
Formula: C10H12O4
Exact mass: 196.07356
Instrument type: EI-MS
m/z	relative intensity
45	13
77	27
79	14
94	14
105	10
107	64
109	13
118	33
119	25
121	15
122	39
133	11
135	77
136	89
137	17
138	12
150	96
151	18
163	46
164	127
165	999
166	95
167	11
179	14
196	574
197	70
198	10
