Mass spectrum: HEXAFLUOROACETONE; EI-MS
Name: PERFLUOROACETONE
Formula: C3F6O
Exact mass: 165.98533
Instrument type: EI-MS
m/z	relative intensity
31	338
40	13
43	16
47	14
50	429
62	11
69	999
70	18
74	10
78	64
93	18
97	194
100	13
119	14
147	120
