Mass spectrum: MALIC ANHYDRIDE; EI-MS
Formula: C4H2O3
Exact mass: 98.00039
Instrument type: EI-MS
m/z	relative intensity
24	37
25	149
26	999
27	28
28	136
29	33
32	24
36	16
37	19
40	12
41	41
42	12
44	52
45	11
52	27
53	94
54	748
55	30
56	5
57	5
69	7
70	7
82	5
98	250
99	17
100	5
