Mass spectrum: DIMETHYL 4-((E)-CINNAMOYL)-4-CYCLOHEXENE-1,2-DICARBOXYLATE; EI-MS
Name: DIMETHYL (1R,2S)-4-((E)-CINNAMOYL)-4-CYCLOHEXENE-1,2-DICARBOXYLATE
Formula: C19H20O5
Exact mass: 328.13107
Instrument type: EI-MS
m/z	relative intensity
40	51
52	150
53	61
54	46
56	54
59	245
76	60
77	751
78	170
79	131
91	80
102	94
103	655
104	82
105	210
116	55
131	710
132	76
165	80
166	46
167	50
179	50
181	136
191	68
207	52
208	101
209	999
210	196
253	45
268	183
269	149
297	84
328	293
329	80
