Mass spectrum: 7-PARA-TOLYLPERHYDROPYRROLO(3',4':3,4)PYRROLO(1,2-C)THIAZOLE-6,8-DIONE (8A,8B-CIS); EI-MS
Formula: C15H16N2O2S
Exact mass: 288.09325
Instrument type: EI-MS
m/z	relative intensity
38	123
40	154
41	128
44	65
53	113
54	95
55	220
65	76
67	84
68	89
77	84
78	91
80	233
81	999
82	94
85	126
91	156
94	79
100	464
101	219
107	87
132	71
133	78
175	177
242	526
243	86
287	65
288	734
289	133
