Mass spectrum: CYCLOHEXANECARBOXYLIC ACID; EI-MS
Formula: C7H12O2
Exact mass: 128.08373
Instrument type: EI-MS
m/z	relative intensity
27	39
29	25
39	183
40	10
41	87
42	11
43	14
45	18
53	41
54	56
55	103
56	35
67	35
68	84
69	43
73	36
81	118
82	42
83	632
84	42
110	83
111	999
112	76
127	18
128	68
129	138
130	12
