Mass spectrum: 2-HYDROXY-3-METHOXYBENZOIC ACID; EI-MS
Formula: C8H8O4
Exact mass: 168.04226
Instrument type: EI-MS
m/z	relative intensity
51	22
55	15
64	10
65	23
66	25
76	15
79	46
81	10
92	148
93	33
94	40
104	18
105	15
107	239
108	32
109	16
119	14
120	268
121	347
122	992
123	74
124	24
149	99
150	999
151	119
152	13
168	842
169	89
170	13
