Mass spectrum: N,N-BIS(TRIMETHYLSILYL)-3-BROMOANILINE; EI-MS
Formula: C12H22BrNSi2
Exact mass: 315.04742
Instrument type: EI-MS
m/z	relative intensity
51	11
53	26
54	21
55	42
56	11
57	32
58	53
59	189
60	11
63	11
67	21
69	32
70	53
71	11
73	999
74	84
75	84
79	26
81	21
84	11
95	11
100	21
121	42
137	11
139	11
148	63
206	126
207	21
221	126
222	32
299	105
300	758
301	189
302	821
303	189
304	63
310	126
311	26
312	132
313	26
