Mass spectrum: (+)-ALPHA-MUUROLENE; EI-MS
Formula: C15H24
Exact mass: 204.1878
Instrument type: EI-MS
m/z	relative intensity
41	403
42	32
43	209
44	2
51	48
52	16
53	129
54	2
55	194
56	32
57	81
63	2
64	16
65	81
66	16
67	9
68	16
69	113
70	16
73	2
77	194
78	48
79	194
80	5
81	290
82	32
83	16
89	2
91	274
92	113
93	371
94	36
95	97
103	40
104	24
105	999
106	177
107	113
108	97
109	3
110	16
115	65
116	24
117	8
118	32
119	290
120	65
121	11
122	48
123	97
127	16
128	5
129	48
130	32
131	56
132	2
133	145
134	81
135	48
136	3
141	24
142	16
143	24
144	2
145	81
146	24
147	226
148	10
149	65
150	16
159	24
160	5
161	565
162	194
163	24
175	5
176	24
189	129
190	40
204	36
205	65
206	16
