Mass spectrum: (E)-1-METHYL-2-(METHYLCARBAMOYL)VINYL DIMETHYL PHOSPHATE; EI-MS
Formula: C7H14NO5P
Exact mass: 223.06096
Instrument type: EI-MS
m/z	relative intensity
39	26
43	28
44	22
50	12
58	83
66	19
67	198
68	18
69	22
79	26
82	19
93	10
95	21
96	29
97	184
98	20
109	105
113	11
127	999
128	30
129	10
164	40
165	11
166	12
192	195
193	118
223	86
