Mass spectrum: N-CETYL-4,7-DI(PARA-ETHOXYPHENYL)-1,2,5-THIADIAZOLO(3,4-C)PYRIDINE-6-CARBOXAMIDE; EI-MS
Formula: C38H52N4O3S
Exact mass: 644.37601
Instrument type: EI-MS
m/z	relative intensity
26	102
28	258
29	354
41	178
43	465
55	131
57	277
69	113
320	116
348	198
349	74
376	346
377	231
378	93
391	133
405	101
434	65
615	178
616	72
643	440
644	999
645	372
646	118
