Mass spectrum: 6,7,8,15,16,17-HEXAHYDRO-7,16-METHANODINAPHTHO(2,3-A:2',3'-F)CYCLODECENE; EI-MS
Formula: C27H24
Exact mass: 348.1878
Instrument type: EI-MS
m/z	relative intensity
115	41
141	76
152	68
154	76
155	100
156	213
157	41
165	123
166	47
167	40
174	77
178	218
179	77
191	77
192	287
193	354
194	56
348	999
349	289
350	41
