Mass spectrum: 2,3-DIMETHYL-1-(METHYLDIPHENYLSILYL)-2-BUTENE; EI-MS
Formula: C19H24Si
Exact mass: 280.16473
Instrument type: EI-MS
m/z	relative intensity
50	32
51	84
53	147
54	63
55	337
59	21
65	42
66	21
67	147
68	32
69	42
77	32
78	32
79	84
81	11
83	42
91	63
93	147
94	11
95	21
103	63
105	432
106	53
107	21
117	21
119	147
120	32
121	63
129	21
145	11
155	21
165	63
180	32
181	63
193	11
195	95
197	999
198	179
199	42
280	25
