Mass spectrum: 2-AMINO-6-METHYLBENZOTHIAZOLE; EI-MS
Formula: C8H8N2S
Exact mass: 164.04082
Instrument type: EI-MS
m/z	relative intensity
66	11
77	48
78	50
92	13
103	10
104	50
105	47
106	14
109	27
110	85
119	10
121	82
122	50
131	56
132	13
136	120
137	62
138	11
163	403
164	999
165	124
166	49
