Mass spectrum: 3,7,11-TRIMETHYL-(2,6Z,10E)-DODECATRIENE-1-CARBOXYLIC ACID ETHYL ESTER; EI-MS
Formula: C17H28O2
Exact mass: 264.20893
Instrument type: EI-MS
m/z	relative intensity
27	70
28	20
29	190
39	7
41	590
42	30
43	130
53	9
54	30
55	140
57	30
65	3
67	130
68	80
69	999
70	7
71	30
77	50
79	130
80	5
81	320
82	140
83	80
85	3
91	130
92	30
93	230
94	5
95	130
96	20
97	20
100	10
105	80
106	60
107	550
108	8
109	290
110	30
111	40
113	5
119	60
120	80
121	560
122	10
123	180
124	20
125	20
128	31
129	20
133	100
134	30
135	6
136	60
137	140
139	40
141	5
142	30
147	150
148	30
149	33
150	50
151	60
153	20
161	4
163	20
168	40
175	80
176	4
177	40
182	20
191	30
194	3
207	20
219	20
221	170
222	2
264	170
