Mass spectrum: METHYL PIVALATE; EI-MS
Formula: C6H12O2
Exact mass: 116.08373
Instrument type: EI-MS
m/z	relative intensity
15	110
27	88
29	259
38	12
39	172
40	24
41	478
42	49
43	20
53	10
550	37
56	236
57	999
58	42
59	73
69	30
73	136
85	58
101	30
116	28
