Mass spectrum: DIMETHYL TRANS-4-((E)-CINNAMOYL)-4-CYCLOHEXENE-1,2-DICARBOXYLATE; EI-MS
Name: DIMETHYL (1S,2S)-4-((E)-CINNAMOYL)-4-CYCLOHEXENE-1,2-DICARBOXYLATE
Formula: C19H20O5
Exact mass: 328.13107
Instrument type: EI-MS
m/z	relative intensity
43	130
51	66
59	144
77	377
78	100
79	70
91	101
102	74
103	520
104	77
105	192
131	616
132	87
137	90
163	140
165	62
181	100
208	71
209	999
210	188
236	70
237	60
253	125
267	61
268	535
269	188
296	487
297	246
328	249
329	60
