Mass spectrum: BIS(CHLOROMETHYLPHENYLSILYL)ACETYLENE; EI-MS
Formula: C16H16Cl2Si2
Exact mass: 334.01676
Instrument type: EI-MS
m/z	relative intensity
51	106
52	340
53	394
54	245
55	11
56	21
63	798
65	394
66	64
67	85
74	11
75	21
76	21
77	277
78	117
79	85
80	32
89	53
91	447
92	43
93	64
101	11
102	21
103	138
104	32
105	319
106	32
107	11
113	32
115	106
116	21
117	64
119	85
120	32
129	423
130	53
131	53
135	21
139	21
140	11
141	21
142	32
143	117
144	32
145	11
152	32
153	32
155	149
156	11
157	43
159	64
165	32
167	11
175	11
177	11
178	32
179	117
180	21
181	64
195	21
205	32
217	21
219	21
221	999
222	213
223	53
241	53
243	21
319	160
320	43
321	117
322	21
323	21
334	43
336	32
