Mass spectrum: 3-ISOPROPENYL-6-METHYL-5-(1-TRIMETHYLSILYLMETHYL-2-PROPENYL)CYCLOHEXANONE; EI-MS
Formula: C17H30OSi
Exact mass: 278.20659
Instrument type: EI-MS
m/z	relative intensity
41	65
43	99
45	79
55	112
58	37
59	76
67	52
69	34
73	999
74	98
75	147
79	32
81	56
91	30
93	36
97	104
107	42
109	44
117	33
119	36
127	191
128	32
141	45
169	35
170	36
181	115
182	32
195	84
196	30
209	100
221	38
223	41
224	179
225	38
263	38
