Mass spectrum: 5-ETHOXY-6,7,9,14,15,16,18-HEPTAFLUORO-2,11-DITHIA(3.3)METACYCLOPHANE; EI-MS
Formula: C18H13F7OS2
Exact mass: 442.0296
Instrument type: EI-MS
m/z	relative intensity
30	461
45	642
125	129
143	134
145	460
157	186
163	288
173	216
174	448
175	323
176	378
177	299
189	152
201	607
203	379
205	856
206	159
207	325
208	224
209	148
233	251
241	165
442	999
443	289
