Mass spectrum: GAMMA-BENZYL L-GLUTAMATE; EI-MS
Formula: C12H15NO4
Exact mass: 237.10011
Instrument type: EI-MS
m/z	relative intensity
17	12
18	64
20	26
27	21
28	72
29	15
30	16
39	45
41	64
42	10
43	19
44	43
50	20
51	54
52	14
53	11
54	11
55	17
56	56
57	22
58	14
63	21
65	75
73	10
74	45
75	27
77	104
78	23
79	161
80	16
84	252
85	21
89	30
90	33
91	999
92	91
93	10
100	39
102	17
103	26
104	12
105	18
107	142
108	208
109	16
120	17
121	119
122	10
128	81
129	26
146	221
147	15
174	32
192	364
193	46
214	70
