Mass spectrum: 2'-HYDROXY-6'-METHOXYACETOPHENONE; EI-MS
Formula: C9H10O3
Exact mass: 166.06299
Instrument type: EI-MS
m/z	relative intensity
43	34
65	34
77	19
81	11
93	36
95	12
105	16
108	78
121	22
123	11
136	102
147	31
148	70
149	12
151	999
152	90
166	491
167	49
168	5
