Mass spectrum: 2-(2-OXO-2-PHENETHYLOXY)TROPONE; EI-MS
Formula: C15H12O3
Exact mass: 240.07864
Instrument type: EI-MS
m/z	relative intensity
38	137
40	56
42	48
50	64
51	193
52	31
55	39
57	35
63	31
65	85
66	41
69	43
76	30
77	488
78	122
91	112
94	80
105	999
106	163
107	34
120	112
122	138
135	238
211	46
212	59
240	188
241	30
43	38
