Mass spectrum: 4,4'-AZOXYANISOL; EI-MS
Name: 4,4'-AZOXYDIANISOL
Formula: C14H14N2O3
Exact mass: 258.10044
Instrument type: EI-MS
m/z	relative intensity
15	20
18	15
27	15
28	18
38	21
39	36
41	24
50	37
51	80
52	83
53	26
55	22
62	17
63	114
64	205
65	44
66	56
67	17
75	13
76	36
77	343
78	228
79	49
80	179
81	14
90	10
91	95
92	305
93	67
94	16
95	81
106	282
107	634
108	70
120	42
121	783
122	171
123	45
128	11
129	12
134	12
135	94
136	16
137	125
138	12
149	11
151	11
187	29
198	17
199	22
201	17
215	58
227	12
229	11
230	15
242	44
243	17
257	26
258	999
259	178
260	21
