Mass spectrum: 4,11,17,24,27-PENTAOXOOCTACYCLO(12.12.0(3,12).0(3,25).0(5,10).0(12,16).0(16,25).0(18,23))HEPTACOSA-5,7,9,18,20,22-HEXAENE; EI-MS
Formula: C27H18O5
Exact mass: 422.11542
Instrument type: EI-MS
m/z	relative intensity
28	704
32	155
76	77
77	96
105	107
152	73
181	94
197	209
198	247
209	87
210	151
227	80
237	175
239	211
377	131
394	278
395	80
404	74
422	999
423	300
424	77
