Mass spectrum: BICYCLO(4.3.0)NONAN-8-OL (8-D); EI-MS
Formula: C9H16O
Exact mass: 140.12012
Instrument type: EI-MS
m/z	relative intensity
27	15
28	18
29	63
31	219
41	34
42	17
43	21
44	12
45	86
46	11
52	11
53	13
54	69
55	82
56	33
57	28
58	38
59	141
60	16
66	21
67	163
68	131
69	39
70	20
71	91
72	22
73	19
74	81
78	13
79	56
80	233
81	999
82	161
83	26
84	85
85	24
92	10
93	83
94	304
95	167
96	176
97	34
98	27
99	14
107	16
108	62
109	26
110	13
112	11
122	36
123	751
124	91
