Mass spectrum: N-(2-METHYL-1-PHENYLPROPYL)PROPANAMIDE; EI-MS
Formula: C13H19NO
Exact mass: 205.14666
Instrument type: EI-MS
m/z	relative intensity
18	22
27	164
28	132
29	312
39	77
41	75
42	20
43	68
50	32
51	87
52	26
55	49
57	246
63	22
65	25
72	20
77	135
78	55
79	99
91	158
104	142
105	58
106	999
107	143
115	38
117	44
132	46
133	28
134	70
148	24
162	503
163	66
205	20
