Mass spectrum: 4-NITROANILINE; EI-MS
Formula: C6H6N2O2
Exact mass: 138.04293
Instrument type: EI-MS
m/z	relative intensity
26	12
27	17
28	60
30	86
37	31
38	72
39	234
40	29
41	80
42	26
46	22
50	46
51	47
52	133
53	91
54	42
61	39
62	76
63	162
64	107
65	771
66	108
74	26
75	17
79	21
80	312
81	21
90	20
91	62
93	32
105	10
108	999
109	72
122	60
138	742
139	61
