Mass spectrum: CIS-5-(6-(1,3-DITHIAN-2-YL)HEXYL)-TRANS-4-FORMYL-2,REF.-3-DIPHENYLISOXAZOLIDINE; EI-MS
Name: (3S,4S,5R)-4-FORMYL-2,3-DIPHENYL-5-(6-(1,3-DITHIAN-2-YL)HEXYL)ISOXAZOLIDINE
Formula: C26H33NO2S2
Exact mass: 455.19527
Instrument type: EI-MS
m/z	relative intensity
18	191
39	148
41	358
45	152
51	207
55	149
73	136
74	122
76	500
77	118
91	897
93	161
104	121
105	138
106	136
119	889
180	299
182	244
196	134
197	137
198	161
454	999
455	293
456	141
181	288
