Mass spectrum: 4-FLUOROBENZOPHENONE; EI-MS
Formula: C13H9FO
Exact mass: 200.06374
Instrument type: EI-MS
m/z	relative intensity
38	17
39	48
50	224
51	505
52	30
53	12
57	26
61	10
62	25
63	34
68	32
69	68
70	13
73	23
74	113
75	429
76	110
77	727
78	75
81	11
85	38
86	95
87	14
93	18
94	77
95	768
96	78
98	12
99	13
105	857
106	128
107	16
120	12
122	11
123	943
124	153
125	21
144	18
150	15
151	20
152	13
168	12
169	30
170	113
171	52
172	48
183	17
199	191
200	999
201	221
202	22
