Mass spectrum: 9,12,17-TRIOXO-5,6,7,9,12,14,15,16-OCTAHYDRO-6,15-METHANOBENZO(A)NAPHTHO(2,3-F)CYCLODECENE; EI-MS
Formula: C23H18O3
Exact mass: 342.12559
Instrument type: EI-MS
m/z	relative intensity
91	92
104	160
105	116
115	193
116	81
117	157
128	119
129	118
145	68
157	188
196	197
197	84
198	164
226	60
237	133
342	999
343	252
344	45
