Mass spectrum: DIETHYL (E,E)-2,7-NONADIENOATE; EI-MS
Formula: C13H20O4
Exact mass: 240.13616
Instrument type: EI-MS
m/z	relative intensity
26	63
27	433
29	999
30	35
31	38
39	354
40	112
41	290
42	91
43	219
45	101
51	39
52	33
53	413
54	131
55	405
57	154
60	92
61	113
65	94
66	138
67	279
68	474
69	81
70	85
71	98
73	95
75	213
77	99
78	63
79	304
80	125
81	886
82	160
83	42
84	55
85	134
86	221
88	205
91	13
92	253
93	734
94	229
95	98
97	172
98	350
99	321
101	44
107	181
108	48
111	82
112	7
114	107
115	42
119	37
120	195
121	377
122	101
123	43
126	13
127	143
137	81
138	253
139	209
140	110
148	260
149	245
150	47
152	74
153	41
165	42
166	585
167	340
168	65
194	205
195	876
196	133
197	82
240	141
241	225
242	36
