Mass spectrum: 1-(4-DIMETHYLAMINOPHENYL)PYRENE; EI-MS
Formula: C24H19N
Exact mass: 321.15175
Instrument type: EI-MS
m/z	relative intensity
41	27
42	60
43	30
44	30
125	53
125.5	20
126	20
137	70
137.5	53
138	233
138.5	106
139	33
153	140
153.5	110
160.5	143
161	110
161.5	31
201	33
202	20
203	41
262	20
263	23
264	56
265	33
275	66
276	63
277	266
278	150
279	76
305	140
306	103
307	140
320	120
321	999
322	286
