Mass spectrum: 3,5-DIHYDROXYTOLUENE; EI-MS
Formula: C7H8O2
Exact mass: 124.05243
Instrument type: EI-MS
m/z	relative intensity
27	20
28	20
29	16
38	11
39	48
40	15
41	56
42	13
43	96
50	15
51	48
52	21
53	42
54	10
55	61
61	12
62	20
63	16
65	32
66	34
67	78
69	71
77	68
78	58
79	18
81	42
82	11
83	12
84	12
85	19
94	15
95	142
96	27
105	24
106	33
107	71
123	500
124	999
125	83
