Mass spectrum: ANTHRACENE; EI-MS
Formula: C14H10
Exact mass: 178.07825
Instrument type: EI-MS
m/z	relative intensity
51	13
62	12
63	42
74	2
75	53
76	162
77	13
87	2
88	113
89	196
126	14
150	47
151	72
152	65
174	18
175	27
176	180
177	104
178	999
179	172
180	14
