Mass spectrum: 2-NONYLCYCLOPENTANONE; EI-MS
Formula: C14H26O
Exact mass: 210.19837
Instrument type: EI-MS
m/z	relative intensity
27	50
29	80
39	46
41	200
42	35
43	97
53	18
54	31
55	135
56	36
57	30
67	34
68	11
69	52
70	15
79	11
81	12
83	95
84	999
85	59
97	140
98	16
210	34
