Mass spectrum: NORBORNYLENE; EI-MS
Name: BICYCLO(2.2.1)HEPT-2-ENE
Formula: C7H10
Exact mass: 94.07825
Instrument type: EI-MS
m/z	relative intensity
28	15
39	11
41	22
42	1
53	15
65	24
66	999
67	7
77	46
78	12
79	115
91	2
93	27
94	227
95	20
