Mass spectrum: 1,1,1-TRIMETHYLDISILANE; EI-MS
Formula: C3H12Si2
Exact mass: 104.04775
Instrument type: EI-MS
m/z	relative intensity
43	30
45	59
59	30
72	10
73	999
74	81
75	30
85	30
86	22
87	111
88	10
89	163
90	22
91	10
99	10
100	10
101	30
102	141
103	133
104	89
105	22
