Mass spectrum: DIETHYL HYDROXYBUTANEDIOATE; EI-MS
Formula: C8H14O5
Exact mass: 190.08412
Instrument type: EI-MS
m/z	relative intensity
15	49
19	47
26	32
27	263
29	611
30	18
31	54
42	82
43	470
44	196
45	149
47	109
55	39
60	52
61	14
69	10
71	999
72	71
73	23
75	179
87	10
88	57
89	378
90	20
100	13
116	38
117	865
118	84
127	38
144	22
145	87
