Mass spectrum: 2'-HYDROXY-5'-METHOXYACETOPHENONE; EI-MS
Formula: C9H10O3
Exact mass: 166.06299
Instrument type: EI-MS
m/z	relative intensity
41	13
43	66
52	13
65	22
67	11
77	43
80	17
81	11
93	16
95	92
105	52
108	70
109	28
123	96
124	11
133	89
148	51
151	979
152	91
166	999
167	99
168	11
