Mass spectrum: 1,2,3-TRIMETHYLBENZENE; EI-MS
Formula: C9H12
Exact mass: 120.0939
Instrument type: EI-MS
m/z	relative intensity
27	29
39	55
41	31
50	16
51	48
52	15
53	21
58	22
59	28
63	25
65	35
77	93
78	31
79	61
91	82
92	15
102	10
103	53
104	26
105	999
106	91
115	33
117	34
118	12
119	179
120	722
121	70
