Mass spectrum: 1-BENZYL-1-(3-PYRIDINO)-2-(N-PHTHALIMIDO)-ETHYLAMINE; EI-MS
Formula: C22H19N3O2
Exact mass: 357.14773
Instrument type: EI-MS
m/z	relative intensity
28	41
44	110
51	32
52	72
55	69
65	61
76	91
77	59
78	75
79	34
83	61
91	99
102	64
104	107
105	55
117	99
130	201
133	59
147	150
148	81
160	83
173	75
174	999
175	164
181	15
183	581
184	74
357	54
365	68
