Mass spectrum: 2,3,4,5-TETRAMETHYLANILINE; EI-MS
Name: 1-AMINOPREHNITENE
Formula: C10H15N
Exact mass: 149.12045
Instrument type: EI-MS
m/z	relative intensity
91	10
106	15
108	10
118	11
120	13
130	10
132	21
133	12
134	357
135	40
148	196
149	999
150	241
151	19
