Mass spectrum: 5-METHYL-5-VINYLTETRAHYDRO-2-FURANONE; EI-MS
Name: 2-FURANONE-3,4-DIHYDRO-5-METHYL-5-VINYL
Formula: C7H10O2
Exact mass: 126.06808
Instrument type: EI-MS
m/z	relative intensity
26	55
27	309
28	381
29	5
32	25
38	18
39	166
40	3
41	176
42	86
43	550
44	2
50	31
51	45
52	23
53	8
54	49
55	679
56	380
57	2
65	35
66	12
67	365
68	3
69	21
70	34
71	474
72	2
79	18
81	47
82	25
83	20
84	45
98	232
99	282
100	2
111	999
112	69
126	149
127	18
