Mass spectrum: SPIRO(4.4)SILANONANE; EI-MS
Formula: C8H16Si
Exact mass: 140.10213
Instrument type: EI-MS
m/z	relative intensity
27	32
28	34
29	48
31	26
39	26
41	18
42	50
43	128
44	20
45	26
53	46
54	29
55	162
56	137
57	146
58	31
59	22
67	24
69	29
70	36
71	16
81	27
82	60
83	198
84	700
85	131
86	33
97	30
98	24
111	28
112	999
113	131
114	44
140	333
141	49
142	18
