Mass spectrum: 2H-PYRIMIDO(1,2-A)(1,3,5)TRIAZINE-2,4,8(1H,3H)-TRIONE; EI-MS
Formula: C6H4N4O3
Exact mass: 180.02834
Instrument type: EI-MS
m/z	relative intensity
38	23
39	49
40	306
41	208
42	135
43	327
44	416
52	20
53	67
54	84
55	17
56	10
65	14
66	20
67	62
68	100
69	630
70	120
81	136
82	18
83	10
93	17
94	40
95	117
96	57
108	24
109	686
110	57
111	29
129	25
136	11
137	999
138	119
139	17
152	29
179	10
180	467
181	50
