Mass spectrum: 3-(4-CHLOROPHENYL)PROPIONIC ACID; EI-MS
Formula: C9H9ClO2
Exact mass: 184.02911
Instrument type: EI-MS
m/z	relative intensity
40	230
41	80
42	80
43	4
44	190
45	80
54	20
55	2
56	170
57	340
58	240
59	1
60	150
61	20
67	60
68	1
69	190
70	150
71	220
72	1
73	70
74	20
77	40
78	0
79	40
80	20
81	110
82	1
83	130
84	120
85	150
86	0
87	30
89	20
91	180
92	0
93	20
94	20
95	80
96	1
97	120
98	60
99	80
100	0
101	20
103	90
104	90
105	1
106	20
107	210
108	40
109	1
110	40
111	70
112	70
113	1
114	20
119	30
120	30
121	0
122	20
123	40
124	20
125	999
126	100
127	360
128	40
131	0
133	20
135	30
136	20
137	0
138	240
139	60
140	90
141	1
142	20
149	150
150	90
151	0
165	20
166	20
167	20
168	0
169	20
181	60
184	460
185	1
186	150
