Mass spectrum: 9-HYDROXY-7-NONANAL; EI-MS
Formula: C9H16O2
Exact mass: 156.11503
Instrument type: EI-MS
m/z	relative intensity
27	252
29	389
31	138
39	223
41	560
42	134
43	335
44	202
45	55
51	23
53	120
54	334
55	433
56	65
57	999
58	81
65	29
66	59
67	456
68	191
69	186
70	201
71	141
72	23
77	36
78	30
79	393
80	96
81	262
82	178
83	212
84	495
85	47
91	78
92	65
93	65
94	290
95	355
96	93
97	98
98	19
105	47
107	20
109	98
110	48
111	19
112	20
123	31
138	19
