Mass spectrum: 3'-BROMOACETOPHENONE; EI-MS
Formula: C8H7BrO
Exact mass: 197.96803
Instrument type: EI-MS
m/z	relative intensity
15	34
28	10
37	23
38	45
39	29
42	21
43	299
49	25
50	288
51	77
61	20
62	33
63	45
65	11
73	33
74	173
75	290
76	337
77	78
89	38
90	28
91	25
104	40
105	13
129	11
131	11
155	489
156	43
157	481
158	39
183	999
184	79
185	976
186	78
198	428
199	37
200	414
201	36
