Mass spectrum: 1-(2-HYDROXYPHENYL)ETHANONE; EI-MS
Formula: C8H8O2
Exact mass: 136.05243
Instrument type: EI-MS
m/z	relative intensity
18	81
28	15
39	10
43	28
65	105
66	15
90	11
93	145
94	25
121	999
122	73
136	663
137	61
138	6
