Mass spectrum: 2-HYDROXY-3-METHOXYBENZALDEHYDE; EI-MS
Formula: C8H8O3
Exact mass: 152.04734
Instrument type: EI-MS
m/z	relative intensity
27	22
39	13
52	19
53	67
55	44
65	41
66	16
67	14
76	71
77	31
78	43
80	15
81	148
92	31
93	31
94	11
95	20
104	16
105	60
106	377
107	49
108	61
109	232
110	17
120	43
121	61
122	117
123	46
124	16
133	18
134	16
136	28
137	26
151	172
152	999
153	89
154	11
