Mass spectrum: 5,6,7,14,15,16-HEXAHYDRO-6,15-METHANOBENZO(A)NAPHTHO(2,3-F)CYCLODECENE; EI-MS
Formula: C23H22
Exact mass: 298.17215
Instrument type: EI-MS
m/z	relative intensity
26	106
29	74
43	51
45	208
46	131
115	47
128	74
141	61
143	112
152	43
153	51
154	51
155	100
156	205
165	66
178	84
179	56
192	48
193	118
298	999
299	266
300	32
310	21
