Mass spectrum: 3-ETHENYL-2,5-BIS(2-METHYLPROPYL)TETRAHYDROFURAN; EI-MS
Formula: C14H26O
Exact mass: 210.19837
Instrument type: EI-MS
m/z	relative intensity
39	149
40	30
41	576
42	86
43	273
44	25
45	37
53	112
54	600
55	434
56	134
57	394
65	37
66	133
67	416
68	529
69	807
70	234
71	59
73	38
77	41
79	128
80	177
81	729
82	999
83	251
85	53
91	22
93	68
95	244
96	339
97	61
107	42
109	417
110	42
124	464
125	56
135	50
153	136
210	7
