Mass spectrum: 3,5-DICHLOROBENZOIC ACID; EI-MS
Formula: C7H4Cl2O2
Exact mass: 189.95883
Instrument type: EI-MS
m/z	relative intensity
17	12
18	25
28	84
32	19
35	11
36	13
37	41
38	30
39	15
45	111
47	10
49	29
50	115
51	29
53	17
54	12
55	13
60	14
61	26
62	26
63	84
64	11
72	16
73	106
74	321
75	342
76	25
77	12
84	67
85	54
86	24
87	21
97	14
98	12
99	105
101	35
108	21
109	252
110	106
111	161
112	35
113	28
144	20
145	373
146	49
147	242
148	26
149	40
155	23
162	16
164	10
172	10
173	695
174	60
175	440
176	37
177	73
190	999
191	82
192	651
193	52
194	104
