Mass spectrum: 4-HYDROXY-3-METHOXYCINNAMIC ACID; EI-MS
Name: FERULIC ACID
Formula: C10H10O4
Exact mass: 194.05791
Instrument type: EI-MS
m/z	relative intensity
15	23
29	12
39	25
41	10
45	33
50	25
51	62
52	29
53	24
55	28
62	18
63	40
65	22
66	12
67	30
69	22
76	11
77	89
78	48
79	26
81	14
89	61
91	18
95	48
105	80
106	23
107	52
109	19
117	43
118	16
123	49
133	178
134	60
135	16
137	11
145	57
148	43
149	32
150	12
151	67
152	11
161	47
163	11
170	12
177	90
178	14
179	207
180	22
193	67
194	999
195	117
196	15
