Mass spectrum: 4-NITROPHENYLACETIC ACID; EI-MS
Formula: C8H7NO4
Exact mass: 181.03751
Instrument type: EI-MS
m/z	relative intensity
39	58
41	20
43	38
44	238
45	60
51	40
52	21
53	35
55	14
63	28
65	142
77	345
78	238
79	209
80	16
89	222
90	179
91	596
92	49
105	19
106	193
107	134
109	78
117	26
120	46
121	57
135	97
136	367
137	124
150	17
151	27
165	26
181	999
182	94
183	13
