Mass spectrum: 1-ETHYL-1,3,3-TRIMETHYL-5-(1-METHYL-3-PROPANAL)INDAN; EI-MS
Formula: C18H26O
Exact mass: 258.19837
Instrument type: EI-MS
m/z	relative intensity
41	20
43	80
57	20
71	13
128	20
129	20
171	20
173	3
185	20
199	50
200	20
214	3
215	150
216	20
229	999
230	19
243	340
244	70
258	150
259	20
