Mass spectrum: 3-(4-FLUOROBENZOYL)PROPIONIC ACID; EI-MS
Formula: C10H9FO3
Exact mass: 196.05357
Instrument type: EI-MS
m/z	relative intensity
27	42
28	20
29	12
45	59
50	39
51	27
55	34
57	12
63	12
68	18
69	36
73	13
74	35
75	205
76	21
94	41
95	462
96	40
101	11
123	999
124	78
151	11
179	13
196	64
