Mass spectrum: (4S)-PERHYDRO-3-BENZYL-4-METHYL-1,3-OXAZIN-2-ONE; EI-MS
Formula: C12H15NO2
Exact mass: 205.11028
Instrument type: EI-MS
m/z	relative intensity
41	16
56	37
65	53
77	12
79	27
89	13
91	454
92	27
104	122
105	29
106	108
114	32
128	37
129	31
132	62
146	39
150	149
160	43
162	62
163	46
176	20
190	77
204	48
205	999
206	123
