Mass spectrum: SILACYCLOPENTANE (2,2,5,5-D4); EI-MS
Formula: C4H10Si
Exact mass: 86.05518
Instrument type: EI-MS
m/z	relative intensity
28	19
29	10
30	11
31	12
43	41
44	105
45	66
46	26
47	16
57	23
58	53
59	133
60	999
61	258
62	91
63	15
73	15
74	14
75	10
87	12
88	54
89	97
90	370
91	40
92	16
