Mass spectrum: PROPYL LACTATE; EI-MS
Formula: C6H12O3
Exact mass: 132.07864
Instrument type: EI-MS
m/z	relative intensity
27	27
31	41
41	49
42	2
43	254
45	999
46	25
56	1
59	25
74	11
75	52
88	1
89	16
91	11
132	3
