Mass spectrum: 2',4'-DIMETHOXYACETOPHENONE; EI-MS
Formula: C10H12O3
Exact mass: 180.07864
Instrument type: EI-MS
m/z	relative intensity
15	45
39	22
43	89
50	19
51	50
52	12
53	17
62	23
63	64
64	31
65	26
66	14
69	13
74	11
75	11
76	11
77	69
78	20
79	54
91	15
92	45
94	16
105	10
106	12
107	75
109	17
121	12
122	108
135	44
137	19
150	44
151	10
163	29
165	999
166	100
167	11
179	19
180	282
181	40
