Mass spectrum: METHYLCYCLOHEXANE; EI-MS
Formula: C7H14
Exact mass: 98.10955
Instrument type: EI-MS
m/z	relative intensity
15	10
26	16
27	171
28	5
29	145
38	16
39	218
40	4
41	497
42	321
43	78
50	1
51	21
52	10
53	57
54	5
55	886
56	301
57	52
65	1
67	47
68	93
69	223
70	24
71	16
77	10
79	10
81	1
82	145
83	999
84	67
97	3
98	482
99	36
