Mass spectrum: 3-OCTYL HEXANOATE; EI-MS
Formula: C14H28O2
Exact mass: 228.20893
Instrument type: EI-MS
m/z	relative intensity
27	89
29	168
39	47
41	233
42	88
43	424
44	12
53	13
54	10
55	166
56	139
57	161
58	10
59	15
60	76
61	15
67	10
68	12
69	83
70	143
71	294
72	20
73	34
82	15
83	85
84	51
87	17
97	12
99	999
100	61
112	153
113	15
114	15
116	71
117	102
129	12
157	38
199	13
