Mass spectrum: BUTYLTRIMETHYLSILANE (D9); EI-MS
Formula: C7H18Si
Exact mass: 130.11778
Instrument type: EI-MS
m/z	relative intensity
27	29
28	20
29	22
30	22
33	13
34	16
44	16
46	78
48	29
49	16
50	91
62	13
64	46
65	342
66	32
67	10
79	74
80	11
81	31
82	999
83	86
84	34
110	11
121	158
122	20
139	24
