Mass spectrum: 3-NITROBENZOPHENONE; EI-MS
Formula: C13H9NO3
Exact mass: 227.05824
Instrument type: EI-MS
m/z	relative intensity
38	17
39	51
40	22
41	43
43	47
44	127
45	10
46	10
50	292
51	446
52	29
53	18
55	39
56	15
57	38
60	13
62	22
63	62
64	27
65	23
67	10
69	26
71	18
73	19
74	104
75	156
76	418
77	816
78	106
81	13
83	17
85	15
86	12
87	19
91	24
92	48
95	14
97	16
98	17
99	14
101	12
102	12
104	194
105	999
106	214
107	16
111	16
113	12
115	20
119	44
120	19
122	18
123	12
125	12
126	34
127	17
135	12
139	20
141	21
145	11
149	20
150	296
151	97
152	134
153	52
180	56
181	71
182	18
196	14
197	27
210	49
211	16
216	10
227	977
228	209
229	26
