Mass spectrum: 4-AMINOPHENOL; EI-MS
Formula: C6H7NO
Exact mass: 109.05276
Instrument type: EI-MS
m/z	relative intensity
41	22
50	14
51	28
52	86
53	101
54	82
55	32
61	11
62	14
63	33
64	22
65	20
68	13
78	25
79	14
80	241
81	84
82	30
107	80
108	138
109	999
110	74
