Mass spectrum: PHENYLISOCYANATE-CYCLICTRIMER; EI-MS
Formula: C21H15N3O3
Exact mass: 357.11134
Instrument type: EI-MS
m/z	relative intensity
39	24
40	68
41	37
43	35
44	116
51	26
55	20
57	31
63	26
64	88
65	31
69	31
70	13
71	14
77	38
81	14
90	22
91	279
92	26
93	18
119	999
120	105
145	15
149	20
237	20
238	38
357	402
358	138
