Mass spectrum: (E)-TERT-BUTYL 3-BENZYLAMINO-5-PHENYL-4-PENTENOATE; EI-MS
Formula: C22H27NO2
Exact mass: 337.20418
Instrument type: EI-MS
m/z	relative intensity
144	10
190	349
191	42
222	999
223	175
224	10
246	213
247	32
264	70
265	10
280	91
281	34
337	39
