Mass spectrum: 5-METHYL-2-PARA-TOLYLPERHYDROPYRROLO(3,4-C)PYRROLE-1,3-DIONE; EI-MS
Formula: C14H16N2O2
Exact mass: 244.12118
Instrument type: EI-MS
m/z	relative intensity
38	90
39	51
40	68
41	244
42	51
43	43
55	71
57	999
58	40
67	62
68	174
77	67
78	48
81	43
82	551
83	69
84	35
91	50
104	45
121	71
243	135
244	399
245	47
