Mass spectrum: ETHYL LACTATE; EI-MS
Formula: C5H10O3
Exact mass: 118.06299
Instrument type: EI-MS
m/z	relative intensity
15	17
26	12
27	87
28	2
29	142
31	17
43	64
44	1
45	999
46	26
47	12
75	4
103	9
