Mass spectrum: 1-ADAMANTANEACETIC ACID; EI-MS
Name: TRICYCLO(3.3.1.1(3.7))DECAN-1-YLACETIC ACID
Formula: C12H18O2
Exact mass: 194.13068
Instrument type: EI-MS
m/z	relative intensity
43	35
55	22
56	16
57	2
58	13
60	18
67	29
69	2
71	10
79	70
81	25
91	2
92	13
93	73
107	31
135	999
136	105
194	7
