Mass spectrum: (TRIMETHYL-1,1-DIPHENYLDISILANYL)TRIMETHYLSILYLACETYLENE; EI-MS
Formula: C20H28Si3
Exact mass: 352.14988
Instrument type: EI-MS
m/z	relative intensity
31	11
32	64
43	383
45	489
53	96
55	43
57	43
59	32
67	43
69	32
73	999
75	32
77	11
79	32
81	21
83	53
91	32
93	43
95	11
97	32
103	32
105	394
107	85
109	11
116	21
117	11
119	53
121	21
129	96
131	32
133	11
135	840
136	117
137	21
140	32
143	32
145	117
146	11
147	11
155	43
157	11
159	128
160	11
161	21
163	21
165	21
171	11
173	32
177	43
178	117
179	21
180	21
181	85
182	21
187	53
191	21
195	64
197	351
198	53
199	11
201	21
202	149
203	21
204	11
207	21
217	181
218	43
219	21
221	96
222	11
249	43
259	11
263	21
264	21
280	447
281	43
337	74
338	21
351	11
352	372
353	138
354	64
