Mass spectrum: METHYL CIS-5-CYANO-TRANS-3-METHYL-REF.-2-PHENYLPYRROLIDINE-3-CARBOXYLATE; EI-MS
Name: METHYL (2R,3R,5R)-5-CYANO-3-METHYL-2-PHENYYLPYRROLIDINE-3-CARBOXYLATE
Formula: C14H16N2O2
Exact mass: 244.12118
Instrument type: EI-MS
m/z	relative intensity
39	122
41	195
43	63
51	114
53	93
59	63
63	75
66	63
69	70
77	178
78	80
89	199
90	168
91	131
104	131
115	129
116	240
117	266
118	75
142	69
143	860
144	999
145	105
156	42
157	34
158	86
168	15
169	27
170	15
176	36
183	29
184	20
185	39
191	22
213	37
217	21
244	73
245	13
