Mass spectrum: SPIRO(3.4)SILAOCTANE; EI-MS
Formula: C7H14Si
Exact mass: 126.08648
Instrument type: EI-MS
m/z	relative intensity
42	17
43	26
55	32
56	18
57	31
67	12
69	22
70	338
71	46
72	15
82	12
83	153
84	48
85	80
86	14
96	55
97	183
98	999
99	118
100	38
111	14
126	365
127	48
128	16
