Mass spectrum: ORTHO-IODOBENZOIC ACID; EI-MS
Name: 2-IODOBENZOIC ACID
Formula: C7H5IO2
Exact mass: 247.93342
Instrument type: EI-MS
m/z	relative intensity
27	14
28	24
37	24
38	26
39	130
45	43
49	21
50	186
51	87
53	24
63	26
64	18
65	321
66	21
73	17
74	75
75	72
76	159
77	49
78	11
92	28
93	44
104	20
121	59
127	59
138	17
203	54
231	494
232	38
248	999
249	103
