Mass spectrum: 1,1-DIMETHYL-SILACYCLOPENTANE (2,2,5,5-D4); EI-MS
Formula: C6H14Si
Exact mass: 114.08648
Instrument type: EI-MS
m/z	relative intensity
43	22
44	14
45	14
46	12
58	361
59	72
60	38
61	38
62	21
72	38
73	100
74	69
75	21
86	16
87	23
88	999
89	104
90	39
99	10
100	30
101	31
102	14
103	387
104	43
105	19
118	232
119	32
120	11
