Mass spectrum: 7-(1,3-DITHIAN-2-YL)HEPTANAL; EI-MS
Formula: C11H20OS2
Exact mass: 232.09556
Instrument type: EI-MS
m/z	relative intensity
70	52
71	202
72	129
74	69
75	263
76	35
77	64
78	93
80	47
85	77
86	73
88	49
90	40
100	31
102	227
103	96
105	46
119	999
120	65
121	92
124	59
125	36
129	88
133	38
134	32
232	249
233	36
234	31
