Mass spectrum: 1-METHYLSILACYCLOPENTANE (1D); EI-MS
Formula: C5H12Si
Exact mass: 100.07083
Instrument type: EI-MS
m/z	relative intensity
43	36
44	115
45	90
46	25
57	27
58	72
59	51
60	25
70	18
71	62
72	159
73	999
74	98
75	40
84	18
85	21
86	86
87	13
99	24
101	203
102	24
103	11
