Mass spectrum: 1,4-DIMETHOXYBENZENE; EI-MS
Name: PARA-DIMETHOXYBENZENE
Formula: C8H10O2
Exact mass: 138.06808
Instrument type: EI-MS
m/z	relative intensity
15	378
26	135
27	62
29	119
38	132
39	186
41	384
50	116
51	156
52	229
53	162
54	166
62	72
63	260
64	196
65	125
66	37
67	41
77	90
79	62
80	105
92	78
95	471
123	999
124	99
138	736
139	75
