Mass spectrum: 2,2-DIMETHOXYPROPANE; EI-MS
Formula: C5H12O2
Exact mass: 104.08373
Instrument type: EI-MS
m/z	relative intensity
15	68
27	50
28	10
29	57
31	58
32	24
33	11
39	61
40	19
41	127
42	120
43	361
45	58
47	33
55	24
57	21
72	69
73	999
74	47
89	232
90	10
