Mass spectrum: 3,3-DIETHOXY-1-PROPYNE; EI-MS
Formula: C7H12O2
Exact mass: 128.08373
Instrument type: EI-MS
m/z	relative intensity
27	24
28	18
29	61
31	17
39	10
45	26
53	14
55	600
56	26
69	17
71	30
83	999
84	58
99	13
127	23
128	2
