Mass spectrum: ALPHA-METHYLNAPHTHALENE; EI-MS
Formula: C11H10
Exact mass: 142.07825
Instrument type: EI-MS
m/z	relative intensity
81	10
115	76
116	90
140	2
141	520
142	999
143	120
144	10
