Mass spectrum: DIMETHYL 1-PHENYLPYRROLIDINE-3,4-DICARBOXYLATE (3,4-TRANS); EI-MS
Formula: C14H17NO4
Exact mass: 263.11576
Instrument type: EI-MS
m/z	relative intensity
39	87
41	143
51	126
59	100
77	409
91	417
99	87
104	316
105	140
106	172
115	93
117	163
118	81
119	207
143	145
144	736
145	372
170	87
177	134
200	83
202	309
204	169
230	128
232	165
263	999
264	141
