Mass spectrum: 1-(2,3,4-TRIMETHOXYPHENYL)ETHANOL; EI-MS
Formula: C11H16O4
Exact mass: 212.10486
Instrument type: EI-MS
m/z	relative intensity
43	42
109	12
122	11
123	14
133	12
134	11
135	27
136	36
137	16
138	70
139	37
140	13
151	16
152	14
153	14
154	64
163	11
165	42
167	87
168	12
169	127
170	13
179	14
180	16
181	25
182	55
195	30
197	999
198	112
199	14
211	13
212	365
213	44
