Mass spectrum: QUINIDINE; EI-MS
Name: CONQUININE
Formula: C20H24N2O2
Exact mass: 324.18378
Instrument type: EI-MS
m/z	relative intensity
18	19
27	29
28	30
29	29
30	14
39	43
41	122
42	121
43	19
44	25
51	15
53	64
54	36
55	113
56	46
57	12
63	20
65	21
66	13
67	44
68	30
69	24
70	22
77	44
78	12
79	81
80	47
81	188
82	98
83	15
88	12
89	37
90	30
91	23
93	18
94	39
95	63
96	19
101	16
102	16
103	11
105	12
106	11
107	13
108	51
109	22
110	24
111	15
115	21
116	58
117	97
118	16
122	27
123	13
124	26
126	19
128	24
129	25
130	24
134	16
135	11
136	999
137	144
138	76
139	21
140	11
141	10
142	11
143	13
144	17
145	55
146	15
152	16
154	21
155	13
158	58
159	56
160	80
161	10
166	20
167	13
168	11
169	13
170	16
172	80
173	166
174	68
182	15
183	15
184	23
185	14
186	46
187	38
188	67
189	244
190	32
196	10
197	11
198	23
199	19
200	25
201	34
202	17
212	11
213	13
214	27
215	15
240	11
267	10
269	14
283	69
284	14
295	17
297	13
307	20
309	58
310	13
311	11
323	28
324	483
325	115
326	53
327	10
