Mass spectrum: 2-ETHENYL-6-HYDROXY-2,5,7,8-TETRAMETHYL-3,4-DIHYDRO-2H-1-BENZOPYRAN; EI-MS
Formula: C15H20O2
Exact mass: 232.14633
Instrument type: EI-MS
m/z	relative intensity
27	38
29	19
39	57
41	14
43	190
51	38
52	19
53	11
54	19
55	57
57	19
63	2
65	57
67	48
69	76
77	11
78	29
79	86
81	29
83	2
91	171
92	19
93	57
94	11
95	38
96	19
102	19
103	3
105	76
106	19
107	38
115	8
116	38
117	57
119	57
121	11
122	29
128	38
129	38
130	2
131	76
132	19
133	67
134	2
135	57
136	838
137	162
138	13
139	38
140	19
141	19
143	2
145	57
146	57
147	95
148	4
149	38
157	38
159	95
160	6
161	257
162	76
163	19
164	44
165	114
171	57
173	48
174	10
175	305
176	143
177	57
187	3
188	38
189	600
190	152
199	3
202	19
203	171
204	999
205	25
217	114
232	514
