Mass spectrum: 2-ISOPROPYL-1,5,9-TRIMETHYLDECANYL 2-ETHYLHEXANOATE; EI-MS
Formula: C24H48O2
Exact mass: 368.36543
Instrument type: EI-MS
m/z	relative intensity
27	12
29	24
41	63
43	17
55	105
56	66
57	518
58	2
68	17
69	112
70	54
71	14
82	21
83	91
84	77
85	10
97	37
98	72
99	251
100	2
111	32
113	30
124	17
125	2
126	39
127	999
128	93
139	2
141	23
145	28
171	34
224	7
225	27
324	8
