Mass spectrum: 1,1'-METHYLENEDI(DIMETHYLPYRROLIDINE-3,4-DICARBOXYLATE) (3,4-TRANS); EI-MS
Formula: C17H26N2O8
Exact mass: 386.16892
Instrument type: EI-MS
m/z	relative intensity
31	153
32	99
33	440
40	116
41	270
42	110
44	169
53	126
55	64
59	999
67	73
68	207
71	172
80	167
81	80
82	267
99	114
101	92
104	61
105	59
126	82
127	85
139	128
140	327
164	113
167	87
187	61
192	60
199	98
200	931
201	89
220	52
222	30
225	24
235	21
243	27
252	81
254	27
257	65
267	26
283	28
284	82
312	150
328	34
335	25
343	123
344	40
