Mass spectrum: 1,3-DIPHENYL-1,3-PROPANEDIONE; EI-MS
Name: DIBENZOYLMETHANE
Formula: C15H12O2
Exact mass: 224.08373
Instrument type: EI-MS
m/z	relative intensity
27	18
39	58
41	10
50	84
51	260
52	25
62	15
63	49
64	14
65	82
69	558
70	18
74	30
75	36
76	55
77	627
78	110
79	15
89	64
90	44
91	78
98	17
102	41
103	30
105	607
106	48
118	36
146	13
147	529
148	52
152	12
165	21
167	15
178	19
195	13
196	19
207	11
223	829
224	999
225	165
226	17
