Mass spectrum: CHLOROTHALONIL; EI-MS
Name: TETRACHLOROISOPHTHALONITRILE
Formula: C8Cl4N2
Exact mass: 263.88156
Instrument type: EI-MS
m/z	relative intensity
84	13
109	16
133	12
144	14
146	10
168	64
170	46
172	10
179	14
181	12
194	70
196	47
203	19
205	17
229	116
230	11
231	102
233	36
264	773
265	73
266	999
267	101
268	485
269	48
270	103
271	11
