Mass spectrum: ETHYL PYRUVATE; EI-MS
Formula: C5H8O3
Exact mass: 116.04734
Instrument type: EI-MS
m/z	relative intensity
14	24
15	86
26	36
27	146
28	23
29	183
30	12
31	46
39	21
40	11
41	12
42	67
43	999
44	34
45	40
61	40
68	22
73	17
89	24
116	16
117	14
