Mass spectrum: 1-(3-METHOXY-2-PHENYLMETHOXYPHENYL)ETHANOL; EI-MS
Formula: C16H18O3
Exact mass: 258.12559
Instrument type: EI-MS
m/z	relative intensity
43	86
65	22
79	10
91	778
92	63
107	49
120	12
121	20
131	15
135	47
136	12
137	14
150	999
151	134
152	22
166	13
214	18
258	30
259	6
