Mass spectrum: METHYL 2-(N-((4S)-4-(1,1-DIMETHYLETHYL)-2-OXAZOLIDINONE-3-CARBAMOYL))AMINOACETATE; EI-MS
Formula: C11H18N2O5
Exact mass: 258.12157
Instrument type: EI-MS
m/z	relative intensity
102	92
116	51
128	27
143	25
158	366
159	27
183	43
199	335
200	36
201	41
202	999
203	146
227	122
228	12
243	53
258	141
259	17
