Mass spectrum: 2-(4-NITROBENZOYL)TROPONE; EI-MS
Formula: C14H9NO4
Exact mass: 255.05316
Instrument type: EI-MS
m/z	relative intensity
39	88
40	151
46	160
50	710
51	692
52	61
53	101
62	86
63	189
64	73
74	307
75	382
77	882
78	999
79	87
89	117
92	215
104	444
105	854
106	63
120	124
141	94
150	191
151	112
152	360
153	203
169	80
180	843
181	256
210	379
226	945
227	203
255	933
256	151
