Mass spectrum: 1,3-DIFLUOROBENZENE; EI-MS
Name: META-DIFLUOROBENZENE
Formula: C6H4F2
Exact mass: 114.02811
Instrument type: EI-MS
m/z	relative intensity
31	44
37	28
38	29
39	19
49	15
50	79
51	22
56	19
57	84
61	30
62	36
63	209
64	32
68	53
69	33
70	35
73	12
74	41
75	64
81	45
83	15
88	129
92	15
93	21
94	58
95	29
113	37
114	999
115	62
