Mass spectrum: N-1-NAPHTHYLETHYL-2,3-DIMETYLPENT-4-ENAMIDE; EI-MS
Formula: C19H23NO
Exact mass: 281.17796
Instrument type: EI-MS
m/z	relative intensity
32	57
41	69
55	262
83	102
115	64
127	205
128	146
129	131
141	70
152	107
153	221
154	283
155	999
156	410
168	50
170	152
171	58
227	339
228	70
282	362
283	80
