Mass spectrum: 3,4,5-TRIMETHOXYBENZOIC ACID; EI-MS
Formula: C10H12O5
Exact mass: 212.06847
Instrument type: EI-MS
m/z	relative intensity
53	18
65	59
69	34
77	26
81	32
93	89
95	20
108	18
109	29
110	24
111	53
123	21
126	37
137	37
139	56
141	120
151	44
152	48
154	78
169	79
182	32
195	22
197	471
198	50
212	999
213	109
214	16
