Mass spectrum: 2-METHOXYNAPHTHALENE; EI-MS
Formula: C11H10O
Exact mass: 158.07316
Instrument type: EI-MS
m/z	relative intensity
15	82
29	15
38	15
39	122
50	20
51	22
62	20
63	51
65	26
74	22
75	26
76	12
77	19
87	17
88	18
89	52
113	18
114	30
115	624
116	69
126	20
127	38
128	84
129	29
143	52
144	72
158	999
159	125
160	13
