Mass spectrum: 6-CHLORO-3,7-DIMETHYL-2,7-OCTADIENYL ACETATE; EI-MS
Formula: C12H19ClO2
Exact mass: 230.10736
Instrument type: EI-MS
m/z	relative intensity
41	265
43	999
53	133
55	15
67	318
68	536
69	157
79	17
80	133
81	322
84	294
85	10
91	119
93	294
95	95
105	10
107	208
119	218
121	81
134	13
135	496
195	76
