Mass spectrum: METHYL (3-BENZYLOXYBICYCLO(4.1.0)HEPT-2-EN-7-YL)ACETATE; EI-MS
Formula: C17H20O3
Exact mass: 272.14124
Instrument type: EI-MS
m/z	relative intensity
39	50
41	37
59	29
65	103
66	34
77	58
79	81
91	999
92	93
93	55
107	142
121	62
150	66
164	14
180	10
181	38
272	32
