Mass spectrum: 2-(2-NITROBENZOYL)TROPONE; EI-MS
Formula: C14H9NO4
Exact mass: 255.05316
Instrument type: EI-MS
m/z	relative intensity
39	129
50	218
51	407
52	48
63	149
64	47
65	120
74	78
75	88
76	310
77	461
78	74
89	117
104	139
105	313
115	56
127	56
133	247
134	67
150	49
151	59
152	172
153	49
154	99
170	55
171	11
180	75
181	230
182	111
183	20
208	10
209	999
210	171
211	29
226	24
227	13
255	18
