Mass spectrum: 5-ALPHA-ANDROSTAN-17BETA-OL-3-ONE; EI-MS
Formula: C19H30O2
Exact mass: 290.22458
Instrument type: EI-MS
m/z	relative intensity
43	20
55	30
57	20
68	90
69	37
71	29
79	27
80	20
81	107
82	38
83	36
85	13
91	18
93	76
94	76
95	129
96	24
97	56
105	55
106	28
107	118
108	52
109	105
110	55
111	55
112	10
118	29
119	77
120	40
121	144
122	106
123	218
124	184
125	30
131	30
132	17
133	64
134	27
135	75
136	54
137	76
138	12
144	10
145	40
146	25
147	70
148	40
149	114
150	24
151	21
157	18
158	12
159	58
160	21
161	79
162	49
163	235
164	69
165	43
166	25
167	54
171	15
172	11
173	39
174	39
175	60
176	60
177	29
178	17
179	43
185	22
187	21
188	13
189	61
190	37
191	17
192	11
199	121
200	51
201	45
202	16
203	37
204	77
205	18
213	49
214	13
215	111
216	26
217	90
218	51
219	22
220	17
228	12
229	18
230	18
231	999
232	223
233	178
234	36
239	13
244	15
246	195
247	105
248	19
257	95
258	20
261	14
272	98
273	21
275	77
276	16
290	922
291	188
292	24
