Mass spectrum: 1,6-BIS(TRIMETHYLSILYL)-1,3,5-HEXATRIYNE; EI-MS
Formula: C12H18Si2
Exact mass: 218.0947
Instrument type: EI-MS
m/z	relative intensity
53	27
67	37
73	106
79	11
80	32
94	74
97	27
121	32
145	21
203	999
204	202
205	64
218	197
219	32
