Mass spectrum: DODECYL ACETATE; EI-MS
Formula: C14H28O2
Exact mass: 228.20893
Instrument type: EI-MS
m/z	relative intensity
26	14
27	37
29	54
38	13
39	56
40	16
41	217
42	65
43	999
44	29
53	14
54	33
55	203
56	150
57	127
58	135
59	14
61	121
67	29
68	41
69	113
70	95
71	35
73	19
82	42
83	88
84	55
85	17
96	14
97	48
98	28
111	12
