Mass spectrum: PHTHALIC ANHYDRIDE; EI-MS
Formula: C8H4O3
Exact mass: 148.01604
Instrument type: EI-MS
m/z	relative intensity
25	11
26	38
27	22
29	15
36	16
37	148
38	171
39	42
44	19
45	18
48	11
49	83
50	592
51	48
52	44
53	34
60	10
61	35
62	20
63	18
65	18
73	68
74	251
75	146
76	898
77	111
104	999
105	110
122	30
148	154
149	25
