Mass spectrum: DIALLYL MALEATE; EI-MS
Formula: C10H12O4
Exact mass: 196.07356
Instrument type: EI-MS
m/z	relative intensity
27	21
28	13
29	17
39	2
41	999
42	71
43	63
44	1
54	34
55	42
56	25
57	12
58	17
67	42
68	17
69	3
70	17
71	17
80	50
81	3
82	63
83	29
97	21
98	3
99	987
100	63
121	13
122	3
139	113
140	147
141	17
142	13
