Mass spectrum: 2-ACETOXY-5-METHOXYTROPONE; EI-MS
Formula: C10H10O4
Exact mass: 194.05791
Instrument type: EI-MS
m/z	relative intensity
38	45
39	105
41	66
42	34
43	452
44	18
50	33
51	60
52	92
53	67
54	99
55	32
62	28
63	90
64	53
65	67
66	16
77	18
79	18
80	40
81	119
82	32
92	24
95	58
109	510
110	46
123	61
124	665
125	49
137	31
138	36
153	999
154	14
194	110
195	14
