Mass spectrum: N-2-BUTENYL-N-(2-METHYL-1-PHENYLPROPYL)PROPANAMIDE; EI-MS
Formula: C17H25NO
Exact mass: 259.19361
Instrument type: EI-MS
m/z	relative intensity
27	194
29	165
39	134
41	112
43	136
51	58
53	67
55	551
56	60
57	372
70	148
77	116
79	59
91	471
104	100
105	77
106	653
107	57
115	76
117	126
126	81
132	119
133	88
148	165
160	999
161	168
162	231
204	328
216	474
217	73
259	71
260	88
