Mass spectrum: 2,5-DIMETHYLCYCLOPENTANONE; EI-MS
Formula: C7H10O
Exact mass: 110.07316
Instrument type: EI-MS
m/z	relative intensity
28	46
29	28
41	201
42	999
43	327
54	42
55	495
56	526
57	67
58	123
68	322
69	750
70	237
79	47
81	49
83	145
84	185
94	52
97	255
112	828
113	87
