Mass spectrum: NORBORNANE; EI-MS
Name: BICYCLO(2.2.1)HEPTANE
Formula: C7H12
Exact mass: 96.0939
Instrument type: EI-MS
m/z	relative intensity
29	22
39	23
40	10
41	3
42	12
53	32
54	408
55	20
66	109
67	999
68	844
69	4
81	887
82	41
95	35
96	44
97	22
