Mass spectrum: PARA-METHOXYPHENOL; EI-MS
Name: 4-METHOXYPHENOL
Formula: C7H8O2
Exact mass: 124.05243
Instrument type: EI-MS
m/z	relative intensity
26	10
27	20
29	14
38	14
39	45
41	11
50	21
51	31
52	38
53	118
54	33
55	27
64	14
65	43
80	12
81	345
82	26
93	15
95	19
109	901
110	60
123	24
124	999
125	80
