Mass spectrum: ETHYL 3-ETHYL-4-METHYLPYRROLE-2-CARBOXYLATE; EI-MS
Formula: C10H15NO2
Exact mass: 181.11028
Instrument type: EI-MS
m/z	relative intensity
37	28
38	97
39	586
40	143
41	472
42	153
43	260
44	32
45	142
50	97
51	284
52	288
53	347
54	65
55	45
56	17
57	9
62	25
63	87
64	73
65	403
66	237
67	114
68	31
74	11
75	12
76	36
77	398
78	161
79	353
80	174
81	69
82	24
91	67
92	216
93	330
94	100
95	11
104	87
105	47
106	493
107	216
108	294
109	55
110	10
114	12
118	13
119	32
120	690
121	73
122	103
123	12
124	12
128	45
132	13
133	29
134	888
135	266
136	383
137	49
138	170
139	21
140	14
152	811
153	108
154	16
166	225
167	26
180	31
181	999
182	210
183	21
