Mass spectrum: DIMETHYL MALONATE; EI-MS
Formula: C5H8O4
Exact mass: 132.04226
Instrument type: EI-MS
m/z	relative intensity
14	35
15	389
27	51
28	3
29	187
30	20
31	45
41	4
42	323
43	202
44	10
45	10
57	328
58	66
59	999
60	3
69	91
70	10
74	535
75	2
100	51
101	985
102	51
104	3
132	76
133	15
