Mass spectrum: 7-HYDROXY-PREGNA-4-ENE-3-ONE-20-CARBALDEHYDE; EI-MS
Formula: C22H32O3
Exact mass: 344.23514
Instrument type: EI-MS
m/z	relative intensity
27	11
29	37
39	19
41	103
43	69
44	35
53	37
55	134
57	19
67	81
69	33
77	57
79	92
80	13
81	92
82	15
83	20
91	91
92	15
93	98
94	19
95	100
97	14
105	71
106	23
107	74
108	22
109	93
110	17
111	11
117	27
119	65
120	26
121	45
122	109
123	192
124	999
125	106
128	12
129	23
131	46
132	23
133	64
134	33
135	80
136	31
137	30
143	24
145	54
146	20
147	42
148	18
149	18
152	50
155	13
157	20
159	28
160	15
161	45
162	41
163	29
169	9
171	19
173	38
174	44
175	37
176	14
183	11
185	26
187	10
189	10
199	17
203	10
227	32
253	14
268	17
269	17
284	17
288	139
289	25
311	16
316	55
326	92
327	19
344	179
345	48
