Mass spectrum: 4-N-HYDROXYIMINOMETHYL-2,5-DIMETHOXY-6-METHYLTROPONE; EI-MS
Formula: C11H13NO4
Exact mass: 223.08446
Instrument type: EI-MS
m/z	relative intensity
38	199
39	999
40	245
41	169
43	239
50	256
51	460
52	299
53	754
63	326
64	199
65	568
66	195
67	196
68	170
76	169
77	565
78	329
79	253
91	384
92	316
93	357
105	341
106	227
107	171
120	486
121	289
133	539
134	287
135	394
136	171
147	176
148	471
149	191
150	132
151	73
152	88
153	92
160	102
161	119
162	352
163	967
164	214
165	91
176	224
177	86
178	298
179	61
180	504
181	67
190	99
191	119
192	252
194	66
206	938
207	133
208	61
223	457
224	109
