Mass spectrum: AZOBENZENE; EI-MS
Formula: C12H10N2
Exact mass: 182.0844
Instrument type: EI-MS
m/z	relative intensity
38	11
39	20
50	44
51	204
52	14
63	21
64	17
74	12
75	11
76	16
77	782
78	61
105	282
106	20
115	15
128	16
152	56
153	63
154	16
156	14
166	58
167	70
168	13
182	999
183	306
184	44
