Mass spectrum: 3,4-DICHLOROPHENYLACETIC ACID; EI-MS
Formula: C8H6Cl2O2
Exact mass: 203.97448
Instrument type: EI-MS
m/z	relative intensity
36	17
38	5
39	6
45	11
51	6
63	15
73	13
75	9
77	40
78	7
89	84
90	9
97	6
99	24
101	7
111	9
113	7
123	91
124	44
125	298
126	36
127	86
128	7
133	22
134	5
135	15
141	8
159	999
160	87
161	651
162	58
163	107
164	11
169	8
186	4
204	444
205	39
206	288
207	25
208	48
209	4
