Mass spectrum: 1,2-BISPHENYLTHIOMETHANE; EI-MS
Formula: C13H12S2
Exact mass: 232.03804
Instrument type: EI-MS
m/z	relative intensity
45	210
51	52
65	31
69	1
77	83
78	11
79	42
91	1
109	42
121	11
123	999
124	9
125	42
232	250
233	42
234	21
