Mass spectrum: 3-ISOPROPENYL-6-METHYL-5-(6-METHYL-2-METHYLENE-1-TRIMETHYLSILYLMETHYL-5-HEPTENYL)CYCLOHEXANONE; EI-MS
Formula: C23H40OSi
Exact mass: 360.28484
Instrument type: EI-MS
m/z	relative intensity
39	29
41	110
42	38
43	409
44	22
45	49
55	75
58	250
59	57
67	39
69	98
73	999
74	117
75	114
77	21
79	23
81	35
91	24
93	41
94	20
95	21
97	40
105	23
107	33
109	45
117	26
119	28
135	251
136	40
141	44
151	47
181	64
195	54
196	32
209	104
210	36
221	36
223	61
224	70
345	31
360	23
