Mass spectrum: XANTHENE; EI-MS
Formula: C13H10O
Exact mass: 182.07316
Instrument type: EI-MS
m/z	relative intensity
28	16
39	9
63	15
76	18
77	10
91	13
126	10
127	15
151	25
152	100
153	28
180	10
181	999
182	613
183	83
184	13
