Mass spectrum: METHYL 2-(N-((BORNANE-10,2-SULTAM)-12-CARBAMOYL)AMINO)-4-METHYL-4-PENTENOATE; EI-MS
Formula: C18H28N2O5S
Exact mass: 384.17189
Instrument type: EI-MS
m/z	relative intensity
190	28
194	131
195	10
198	12
200	16
201	151
202	10
203	131
213	33
214	153
215	55
216	25
226	36
229	723
231	975
232	149
236	16
242	794
243	110
244	96
248	14
250	13
259	66
262	12
267	39
270	10
282	10
285	10
286	147
287	17
296	204
297	20
298	201
299	22
300	67
308	146
309	14
310	307
311	240
312	39
313	16
317	19
324	12
325	546
326	104
327	39
329	999
331	60
352	100
353	78
370	82
371	13
382	10
384	307
385	60
386	22
330	141
