Mass spectrum: 2-METHYL-1,8-OCTANEDIOL; EI-MS
Formula: C9H20O2
Exact mass: 160.14633
Instrument type: EI-MS
m/z	relative intensity
27	94
29	175
31	259
39	84
41	513
42	182
43	260
44	5
45	68
54	136
55	825
56	367
57	240
67	237
68	292
69	999
70	429
71	133
81	221
82	341
83	357
84	188
85	94
95	130
96	117
97	115
112	241
