Mass spectrum: SILACYCLOHEXANE; EI-MS
Formula: C5H12Si
Exact mass: 100.07083
Instrument type: EI-MS
m/z	relative intensity
31	15
41	28
42	12
43	71
44	194
45	43
56	13
57	40
58	92
59	84
69	27
70	85
71	181
72	999
73	99
74	36
83	21
85	32
97	63
98	69
99	108
100	437
101	53
102	19
