Mass spectrum: 4-METHOXY-3-(TRIMETHYLSILYL)METHYL-1-UNDECENE; EI-MS
Formula: C16H34OSi
Exact mass: 270.23789
Instrument type: EI-MS
m/z	relative intensity
31	13
39	20
41	140
42	14
43	144
44	21
45	350
46	12
53	13
54	18
55	318
56	21
57	74
58	56
59	129
60	10
67	103
68	22
69	999
70	74
71	85
72	20
73	497
74	47
75	39
81	20
82	16
83	55
85	15
89	337
90	30
91	16
95	15
96	11
97	27
103	11
111	281
112	31
127	10
128	12
143	800
144	94
