Mass spectrum: 1-METHYL-3-PARA-METHYLBENZOYL-4-PHENYLPYRROLIDINE (3,4-TRANS); EI-MS
Name: (3R,4S)-1-METHYL-3-PARA-METHYLBENZOYL-4-PHENYLPYRROLIDINE
Formula: C19H21NO
Exact mass: 279.16231
Instrument type: EI-MS
m/z	relative intensity
40	60
42	52
43	234
44	218
45	57
56	50
58	321
59	80
65	93
77	52
82	65
84	93
91	283
92	42
103	47
104	109
115	141
116	57
117	259
119	202
128	118
133	592
134	75
147	139
158	136
160	76
174	999
175	507
176	56
185	46
210	148
279	422
280	97
