Mass spectrum: DIBENZOFURAN; EI-MS
Formula: C12H8O
Exact mass: 168.05751
Instrument type: EI-MS
m/z	relative intensity
500	12
510	16
620	17
630	35
690	54
700	29
740	15
750	15
840	129
870	17
880	13
890	18
1130	22
1140	23
1390	210
1400	31
1680	999
1690	135
