Mass spectrum: 2-NITROBENZYL BENZOATE; EI-MS
Formula: C14H11NO4
Exact mass: 257.06881
Instrument type: EI-MS
m/z	relative intensity
37	18
38	62
39	288
40	116
41	86
42	28
43	79
44	270
45	24
49	12
50	372
51	554
52	329
53	68
54	17
55	99
56	91
57	109
60	20
61	21
62	71
63	275
64	228
65	221
66	47
67	17
68	16
69	58
70	69
71	56
73	24
74	94
75	112
76	351
77	771
78	633
79	539
80	55
81	19
82	12
83	39
84	26
85	22
86	16
87	18
89	314
90	110
91	548
92	177
93	69
94	20
95	10
97	17
98	27
103	16
104	140
105	918
106	691
107	151
108	18
111	12
112	13
113	11
115	10
116	11
119	46
120	17
121	67
122	229
123	33
134	14
135	849
136	384
137	51
139	16
149	36
151	11
152	35
153	13
165	31
166	17
167	40
181	12
211	999
212	518
213	65
227	20
249	11
256	11
257	141
258	30
