Mass spectrum: 4-NITROPHENOL; EI-MS
Formula: C6H5NO3
Exact mass: 139.02694
Instrument type: EI-MS
m/z	relative intensity
400	47
430	13
500	43
510	51
520	68
530	110
540	22
550	15
570	18
610	26
620	53
630	114
640	63
650	535
660	44
740	26
750	20
790	18
800	14
810	103
920	16
930	199
940	15
1050	18
1070	93
1080	18
1090	155
1100	18
1230	48
1350	35
1390	999
1400	71
