Mass spectrum: 2-HYDROXYMETHYLPYRROLIDINE-1-CARBOXYLIC ACID ETHYL ESTER; EI-MS
Formula: C8H15NO3
Exact mass: 173.10519
Instrument type: EI-MS
m/z	relative intensity
28	49
29	48
41	20
42	12
43	42
55	38
56	14
68	29
69	41
70	519
71	28
82	13
84	32
85	15
96	12
97	35
98	195
99	34
114	76
127	49
128	63
142	999
143	90
156	12
173	10
