Mass spectrum: 4-NITROBENZOIC ACID; EI-MS
Formula: C7H5NO4
Exact mass: 167.02186
Instrument type: EI-MS
m/z	relative intensity
39	226
40	13
44	16
45	18
50	13
51	117
53	60
63	11
64	18
65	999
66	56
75	115
76	67
77	13
81	106
92	32
93	74
103	63
104	55
109	140
110	10
120	20
121	428
122	35
137	125
150	26
151	42
167	882
168	72
169	10
