Mass spectrum: 2,3-BUTANEDIONE MONOXIME; EI-MS
Formula: C4H7NO2
Exact mass: 101.04768
Instrument type: EI-MS
m/z	relative intensity
14	21
15	133
26	17
27	29
28	37
29	13
30	16
31	28
38	10
39	19
40	43
41	46
42	151
43	999
44	24
58	57
101	139
