Mass spectrum: 2,4-DIBUTYL-4,4A-DIHYDRO-1H-(1,3,5)TRIAZINO(1,2-A)QUINOLINE-1,3,6(2H,5H)-TRIONE; EI-MS
Formula: C19H25N3O3
Exact mass: 343.18959
Instrument type: EI-MS
m/z	relative intensity
34	16
39	84
40	229
41	309
42	78
43	176
44	496
45	29
50	16
51	20
53	22
54	33
55	151
56	351
57	216
58	20
60	13
63	36
64	36
65	33
67	16
68	16
69	56
70	133
71	47
72	27
73	16
76	60
77	89
78	18
81	16
82	27
83	38
84	42
85	20
89	82
90	356
91	87
92	27
93	18
95	16
96	16
97	27
98	44
99	27
100	18
103	25
104	84
105	40
111	16
112	16
113	17
116	104
117	213
118	138
119	56
120	18
126	13
128	27
129	27
130	27
131	18
132	60
133	47
134	14
135	13
143	36
144	107
145	60
146	778
147	103
149	67
153	22
155	29
158	62
159	47
160	31
161	38
162	38
167	27
168	18
169	11
173	31
174	31
186	18
187	58
188	38
189	27
201	271
202	67
203	13
215	51
216	31
217	16
224	116
225	18
230	62
231	29
232	38
243	14
244	15
245	62
246	13
258	36
259	27
272	22
273	44
279	18
286	131
287	102
288	129
289	29
298	36
300	38
301	838
302	216
314	84
315	149
328	56
341	16
342	44
343	999
344	316
