Mass spectrum: DIMETHOXYDIMETHYLSILANE; EI-MS
Formula: C4H12O2Si
Exact mass: 120.06066
Instrument type: EI-MS
m/z	relative intensity
15	35
43	56
45	26
58	24
59	72
61	18
74	10
75	411
76	31
77	16
89	71
105	999
106	85
107	40
