Mass spectrum: (1S,2R,3E,7E,11E)-2-HYDROXYCEMBRA-3,7,11-TRIENE; EI-MS
Name: MUKULOL
Formula: C20H34O
Exact mass: 290.26097
Instrument type: EI-MS
m/z	relative intensity
41	683
42	98
43	366
44	1
45	12
53	260
54	49
55	56
56	146
57	280
58	24
59	2
65	61
66	49
67	427
68	60
69	732
70	98
71	159
72	1
77	122
78	37
79	232
80	11
81	939
82	244
83	366
84	999
85	134
91	146
92	73
93	35
94	171
95	476
96	159
97	16
98	30
99	24
105	109
106	5
107	256
108	122
109	317
110	7
111	61
119	85
120	49
121	26
122	195
123	488
124	85
125	4
126	12
127	12
131	37
132	1
133	73
134	61
135	171
136	28
137	195
138	61
139	37
140	5
141	12
145	24
146	37
147	7
148	85
149	171
150	61
151	6
152	18
153	24
159	49
160	2
161	98
162	49
163	85
164	6
165	24
166	24
167	12
173	2
175	24
176	24
177	61
178	2
179	24
187	37
188	12
189	6
190	24
191	49
192	24
193	1
215	12
216	12
217	37
218	1
219	6
220	12
229	98
230	2
231	12
247	49
248	12
257	5
258	6
272	122
273	37
274	1
275	37
276	12
290	110
291	4
292	12
