Mass spectrum: DIMETHOXYMETHANE; EI-MS
Formula: C3H8O2
Exact mass: 76.05243
Instrument type: EI-MS
m/z	relative intensity
14	47
15	254
29	487
30	42
31	142
43	30
44	26
45	999
46	23
47	44
75	375
76	13
