Mass spectrum: METHYL TRIACETYL-6-DEOXY-BETA-L-IDOPYRANOSIDE; EI-MS
Formula: C13H20O8
Exact mass: 304.11582
Instrument type: EI-MS
m/z	relative intensity
40	10
41	33
42	19
43	999
44	38
45	38
46	14
53	1
54	11
55	33
56	14
57	4
58	30
59	14
60	22
61	3
67	14
69	22
70	14
71	12
72	19
73	27
74	87
75	1
81	16
82	44
83	115
84	3
85	27
86	14
87	82
88	2
89	14
95	14
96	27
97	2
98	14
99	60
100	115
101	5
102	109
103	82
104	14
105	1
109	11
110	11
111	60
112	1
113	98
114	22
115	142
116	4
117	19
125	19
126	16
127	3
128	11
129	30
130	8
131	1
140	49
141	19
142	96
143	3
144	87
145	38
146	8
149	2
153	33
154	11
155	8
156	1
157	251
158	33
159	14
184	12
185	33
186	14
187	11
200	1
201	11
213	16
214	8
244	1
261	14
262	5
273	8
274	0
303	3
