Mass spectrum: 1-DEHYDROXYTESTSTERONE; EI-MS
Name: 1,4-ANDROSTADIENE-17BATA-OL-3-ONE
Formula: C19H26O2
Exact mass: 286.19328
Instrument type: EI-MS
m/z	relative intensity
55	12
67	11
79	12
81	21
91	20
93	43
94	13
95	20
97	14
105	28
107	42
108	58
109	26
110	16
119	23
120	14
121	112
122	999
123	108
124	12
131	13
133	32
134	54
135	32
145	19
146	12
147	86
148	15
151	21
159	20
160	16
161	18
165	17
173	13
227	18
268	5
286	61
287	18
