Mass spectrum: 9-(4-DIMETHYLAMINOPHENYL)FLUORENE; EI-MS
Formula: C21H19N
Exact mass: 285.15175
Instrument type: EI-MS
m/z	relative intensity
41	19
42	90
43	19
44	16
50	22
51	34
52	22
63	38
65	16
68	17
69	15
70	22
71	15
75	19
76	16
77	24
78	30
79	16
118.5	22
119	24
119.5	49
120	69
120.5	85
121	28
134	20
134.5	17
135	16
135.5	14
142	72
142.5	56
143	77
150	16
151	16
152	16
153	28
154	11
164	50
165	36
166	179
167	49
177	17
179	23
188	27
189	14
190	29
194	14
194.5	14
195	14
195.5	17
196	11
201	20
202	20
203	54
204	20
212	7
213	8
214	32
215	14
216	40
217	16
224	16
225	29
226	27
227	56
228	35
229	33
230	24
240	201
241	96
242	277
243	80
269	141
270	185
271	169
272	33
283	48
284	490
285	999
286	229
390	48
391	29
405	124
406	52
