Mass spectrum: PYRROLIDINE-2-ONE; EI-MS
Formula: C4H7NO
Exact mass: 85.05276
Instrument type: EI-MS
m/z	relative intensity
27	42
28	216
29	79
30	417
39	29
40	66
41	342
42	465
43	17
44	10
55	15
56	88
57	13
84	224
85	999
86	88
87	5
