Mass spectrum: 2,2'-BINAPHTHYL; EI-MS
Name: 2,2'-BINAPHTHALENE
Formula: C20H14
Exact mass: 254.10955
Instrument type: EI-MS
m/z	relative intensity
17	11
27	10
113	15
125	11
126	39
127	45
226	11
250	37
251	17
252	193
253	106
254	999
255	218
256	23
