Mass spectrum: ORTHO-TOLYLACETIC ACID; EI-MS
Name: ORTHO-METHYLPHENYLACETIC ACID
Formula: C9H10O2
Exact mass: 150.06808
Instrument type: EI-MS
m/z	relative intensity
41	11
43	35
45	14
55	2
56	15
57	25
58	15
60	2
69	14
70	10
71	15
77	5
78	14
79	77
85	10
91	15
92	11
103	37
104	40
105	999
106	112
132	21
149	24
150	49
151	55
