Mass spectrum: DI(4-BROMOPHENYL)METHYLPHENYLSILANE; EI-MS
Formula: C19H16Br2Si
Exact mass: 429.9388
Instrument type: EI-MS
m/z	relative intensity
52	553
53	500
54	894
55	999
56	128
57	128
58	160
63	21
64	104
65	138
66	128
67	138
68	32
69	85
70	21
71	43
73	64
74	85
75	287
76	351
77	532
78	223
79	319
80	160
81	74
82	128
83	32
85	32
86	11
87	21
88	11
89	104
90	128
91	404
92	64
93	181
94	21
95	32
96	11
97	21
98	11
99	11
101	74
102	74
103	436
104	170
105	989
107	766
109	713
110	32
111	32
113	32
114	32
115	74
116	32
117	128
118	64
119	181
120	74
121	64
122	64
123	32
124	32
125	32
126	53
127	138
128	150
129	160
130	32
131	21
135	500
139	32
141	32
142	21
143	21
145	21
147	11
149	32
150	64
151	138
152	447
153	287
154	64
155	128
156	21
157	11
163	11
164	32
165	287
166	43
167	53
168	32
169	32
175	21
176	32
177	32
178	21
179	191
180	266
181	266
182	64
183	96
185	96
193	64
194	21
195	64
196	32
197	21
201	21
274	32
276	32
415	160
416	96
417	372
418	85
419	234
420	43
430	32
432	53
434	32
