Mass spectrum: 4-METHYL-3-OXATRICYCLO(3.3.0.0(4,6))OCTA-2,8-DIONE; EI-MS
Formula: C8H8O3
Exact mass: 152.04734
Instrument type: EI-MS
m/z	relative intensity
38	43
39	109
40	310
41	29
42	69
43	108
44	999
45	27
51	194
52	274
53	194
54	873
55	107
56	72
62	30
63	51
65	27
67	20
69	78
77	38
78	35
79	120
80	50
81	585
82	544
83	48
95	86
108	25
109	45
110	399
111	28
124	46
151	70
152	16
