Mass spectrum: 3,5-DICHLORO-2,6-DIMETHOXYTROPONE; EI-MS
Formula: C9H8Cl2O3
Exact mass: 233.98505
Instrument type: EI-MS
m/z	relative intensity
15	116
50	150
53	122
61	137
62	223
63	109
69	215
73	105
85	243
87	111
97	305
99	204
113	290
120	119
141	165
148	173
150	110
163	949
165	605
167	100
169	141
171	226
176	114
191	321
193	202
205	105
206	999
207	123
208	625
210	103
234	587
236	407
238	66
