Mass spectrum: 5-METHYL-4,4-TETRAMETHYLENE-2-PARA-TOLYLPERHYDROPYRROLO(3,4-C)PYRROLE-1,3-DIONE; EI-MS
Formula: C18H22N2O2
Exact mass: 298.16813
Instrument type: EI-MS
m/z	relative intensity
40	51
42	88
43	97
44	57
54	44
56	85
65	36
67	56
68	77
77	53
78	39
79	45
80	34
81	78
82	52
91	82
93	41
94	288
95	181
96	34
107	41
108	309
109	80
110	75
132	36
133	52
164	49
255	37
256	999
257	182
269	70
270	195
298	140
299	33
