Mass spectrum: 3-ETHOXYPROPIONIC ACID METHYL ESTER; EI-MS
Formula: C6H12O3
Exact mass: 132.07864
Instrument type: EI-MS
m/z	relative intensity
27	53
29	117
31	303
43	999
44	213
45	100
59	531
61	4
72	438
73	56
87	112
88	101
