Mass spectrum: NORCAMPHOR; EI-MS
Name: BICYCLO(2.2.1)HEPTAN-2-ONE
Formula: C7H10O
Exact mass: 110.07316
Instrument type: EI-MS
m/z	relative intensity
39	32
40	11
41	156
42	2
43	18
53	33
54	264
55	3
66	999
67	172
68	722
69	2
79	31
80	10
81	119
82	5
92	36
93	12
95	49
109	4
110	469
111	38
