Mass spectrum: AMINODURENE; EI-MS
Name: 2,3,5,6-TETRAMETHYLANILINE
Formula: C10H15N
Exact mass: 149.12045
Instrument type: EI-MS
m/z	relative intensity
28	20
29	11
39	37
41	28
42	17
51	20
53	21
63	12
65	28
74.5	11
77	44
78	16
79	25
80	11
91	79
92	14
93	29
94	15
104	12
105	46
106	34
107	29
108	16
115	46
116	24
117	96
118	38
119	30
120	63
121	20
130	19
131	33
132	48
133	37
134	715
135	122
146	15
147	22
148	242
149	999
150	146
