Mass spectrum: 2-ETHOXYCARBONYL-3-ETHYL-4-METHYL-5-BENZYLOXYCARBONYL-PYRROLE; EI-MS
Formula: C18H21NO4
Exact mass: 315.14706
Instrument type: EI-MS
m/z	relative intensity
39	216
40	44
41	178
42	27
43	89
44	282
45	36
50	33
51	129
52	87
53	133
54	36
55	76
56	20
57	51
63	76
64	49
65	500
66	91
67	82
68	38
69	103
71	18
76	18
77	344
78	129
79	371
80	84
81	82
82	14
83	18
89	91
90	84
91	938
92	396
93	47
94	22
95	48
96	13
97	36
104	82
105	104
106	158
107	104
108	42
109	18
119	44
120	27
121	14
122	14
123	16
125	64
131	11
132	18
133	71
134	84
135	69
136	36
137	36
146	16
147	13
148	13
149	38
150	15
151	36
152	120
153	93
154	19
160	169
161	27
162	400
163	59
164	67
165	20
166	29
167	27
168	14
178	556
179	102
180	124
181	284
182	153
183	33
192	18
196	67
206	56
208	316
209	71
210	29
224	931
225	176
226	42
242	29
254	84
255	16
268	73
269	47
270	131
271	31
286	84
287	18
300	84
315	999
316	296
