Mass spectrum: META-FLUOROANISOLE; EI-MS
Formula: C7H7FO
Exact mass: 126.04809
Instrument type: EI-MS
m/z	relative intensity
15	37
26	14
29	28
31	19
37	13
38	21
39	31
50	35
51	21
56	11
57	113
61	12
62	17
63	42
64	12
68	11
69	17
70	23
74	18
75	59
77	18
81	25
82	19
83	333
84	27
95	74
96	424
97	119
98	13
111	33
112	33
125	19
126	999
127	89
