Mass spectrum: SPIRO(3.5)SILANONANONE; EI-MS
Formula: C8H16Si
Exact mass: 140.10213
Instrument type: EI-MS
m/z	relative intensity
55	16
56	42
57	13
58	33
69	26
70	52
71	91
82	33
83	151
84	841
85	100
86	38
97	166
98	87
99	101
100	18
110	19
111	53
112	999
113	130
114	42
140	499
141	79
142	28
