Mass spectrum: 2-TERT-BUTYL-5-METHYLPHENOL; EI-MS
Name: 6-TERT-BUTYL-META-CRESOL
Formula: C11H16O
Exact mass: 164.12012
Instrument type: EI-MS
m/z	relative intensity
15	11
27	31
28	17
40	45
42	53
44	11
52	23
54	24
56	12
63	16
65	25
77	78
78	22
79	26
91	111
92	13
93	15
103	20
105	57
107	32
108	13
109	44
115	53
116	50
117	10
119	12
121	613
122	64
128	15
129	21
131	15
133	22
135	12
147	14
148	18
149	999
150	110
164	375
165	47
