Mass spectrum: 3-(TRIPHENYLMETHYL)-5-OXAZOLIDINONE; EI-MS
Formula: C22H19NO2
Exact mass: 329.14158
Instrument type: EI-MS
m/z	relative intensity
77	20
91	84
115	17
165	267
166	50
167	23
215	25
228	33
239	39
240	21
241	38
242	21
243	999
244	239
245	28
252	19
