Mass spectrum: ETHYLMALONIC ACID; EI-MS
Formula: C5H8O4
Exact mass: 132.04226
Instrument type: EI-MS
m/z	relative intensity
14	4
15	22
16	29
17	28
18	237
19	19
26	22
27	416
28	164
29	219
30	7
31	28
32	4
36	13
38	6
39	98
40	39
41	393
42	396
43	254
44	545
45	281
46	14
47	8
53	3
54	8
55	559
56	20
57	16
58	30
60	734
61	19
62	3
68	83
69	170
70	193
71	53
72	5
73	592
74	20
75	3
85	15
86	825
87	126
88	53
89	5
91	7
99	15
104	999
105	36
106	10
113	3
114	11
115	25
133	3
