Mass spectrum: (1S,3E,7E,11E)-CEMBRA-3,7,11-TRIENE; EI-MS
Formula: C20H34
Exact mass: 274.26605
Instrument type: EI-MS
m/z	relative intensity
41	910
42	109
43	418
44	2
51	27
52	18
53	327
54	6
55	782
56	73
57	236
58	2
65	73
66	55
67	690
68	67
69	945
70	91
71	127
77	16
78	36
79	345
80	127
81	999
82	282
83	273
84	36
85	6
91	164
92	73
93	527
94	24
95	764
96	200
97	109
98	2
105	145
106	55
107	600
108	46
109	473
110	91
111	55
119	11
120	55
121	436
122	291
123	75
124	109
125	36
133	73
134	6
135	291
136	309
137	200
138	6
147	91
148	36
149	200
150	18
151	73
152	18
161	91
162	4
163	255
164	91
165	55
166	2
175	82
176	36
177	109
178	7
179	36
180	18
189	73
190	4
191	109
192	36
193	9
203	6
204	36
205	27
206	18
217	3
218	18
219	18
231	163
232	6
233	9
245	18
246	9
247	1
259	127
260	36
261	9
274	24
275	63
276	9
