Mass spectrum: (2E,6E,10E,15E)-6,10-BIS(TRIMETHYLSILYLMETHYL)-2,6,10,14-HEXADECATETRAENE; EI-MS
Formula: C26H50Si2
Exact mass: 418.3451
Instrument type: EI-MS
m/z	relative intensity
41	28
45	28
59	29
69	59
73	999
74	98
75	43
93	15
97	10
109	15
125	11
135	112
136	14
153	19
179	42
180	10
181	12
209	206
210	42
211	12
222	37
349	19
418	31
419	12
