Mass spectrum: 1-METHYL-SILACYCLOPENTANE (2,2,5,5-D4); EI-MS
Formula: C5H12Si
Exact mass: 100.07083
Instrument type: EI-MS
m/z	relative intensity
43	28
44	103
45	95
46	34
47	10
58	24
59	48
60	69
61	28
62	15
71	17
72	43
73	91
74	999
75	171
76	60
86	10
87	35
88	26
89	68
103	48
104	248
105	28
106	9
