Mass spectrum: 1,1,1-TRIPHENYLMETHANOL; EI-MS
Formula: C19H16O
Exact mass: 260.12012
Instrument type: EI-MS
m/z	relative intensity
39	50
40	21
41	31
43	30
44	33
50	54
51	301
52	33
53	11
55	17
57	23
63	22
65	15
69	22
74	12
75	17
76	40
77	821
78	104
79	26
91	30
105	999
106	92
115	23
127	12
128	10
139	18
149	22
151	17
152	57
153	43
154	233
155	181
156	26
163	16
164	16
165	110
166	22
167	16
181	68
182	175
183	861
184	149
185	14
215	14
239	27
241	24
242	18
243	22
244	12
259	18
260	617
261	161
