Mass spectrum: 8-METHOXY-2-METHYL-6-METHYLENE-7-(TRIMETHYLSILYL)METHYL-2-UNDECENE; EI-MS
Formula: C18H36OSi
Exact mass: 296.25354
Instrument type: EI-MS
m/z	relative intensity
39	11
41	81
43	17
45	350
46	11
53	12
55	99
57	53
59	66
67	37
71	16
73	531
74	55
75	33
77	12
79	16
81	74
82	13
86	10
87	999
88	75
89	130
90	12
91	13
93	20
95	12
101	17
105	82
107	17
109	15
110	29
123	65
125	11
135	45
136	12
141	36
147	39
149	22
194	22
195	20
221	11
222	14
227	35
264	20
296	11
