Mass spectrum: BUTYL LACTATE; EI-MS
Formula: C7H14O3
Exact mass: 146.09429
Instrument type: EI-MS
m/z	relative intensity
29	91
41	110
43	13
44	2
45	999
46	26
55	19
56	14
57	266
58	13
75	39
85	10
91	19
102	13
