Mass spectrum: 3-NITROBENZYL BENZOATE; EI-MS
Formula: C14H11NO4
Exact mass: 257.06881
Instrument type: EI-MS
m/z	relative intensity
27	12
30	17
38	10
39	39
44	16
50	62
51	178
52	21
62	12
63	58
64	23
74	16
75	18
76	51
77	397
78	73
89	149
90	128
91	12
105	999
106	96
135	308
136	112
152	14
165	17
166	12
210	12
212	21
240	29
257	28
