Mass spectrum: TETRAPROPOXYMETHANE; EI-MS
Formula: C13H28O4
Exact mass: 248.19876
Instrument type: EI-MS
m/z	relative intensity
27	181
29	89
30	14
31	83
39	50
40	12
41	251
42	84
43	865
44	31
59	76
61	12
63	889
64	12
76	27
104	13
105	670
106	31
147	245
148	19
189	999
190	116
191	14
