Mass spectrum: BENZIL; EI-MS
Formula: C14H10O2
Exact mass: 210.06808
Instrument type: EI-MS
m/z	relative intensity
51	11
77	218
78	22
105	999
106	77
210	42
