Mass spectrum: 8-HYDROXY-4-TRIDECEN-6-ONE; EI-MS
Formula: C13H24O2
Exact mass: 212.17763
Instrument type: EI-MS
m/z	relative intensity
39	63
41	595
42	88
43	348
44	65
53	103
55	887
56	158
57	135
67	70
68	110
69	157
70	146
71	188
97	999
98	88
99	139
112	199
113	71
115	167
141	549
152	63
153	12
156	40
169	43
194	158
195	27
212	14
