Mass spectrum: 4-BENZYLOXY-2,3,5-TRIMETHYLTHIOPHENOL; EI-MS
Formula: C16H18OS
Exact mass: 258.10784
Instrument type: EI-MS
m/z	relative intensity
28	460
32	190
39	30
41	2
45	20
55	20
65	90
77	3
79	20
91	999
92	100
105	6
106	30
123	40
139	20
166	11
167	690
168	100
169	40
258	22
259	40
