Mass spectrum: (-)-CINCHONIDINE; EI-MS
Formula: C19H22N2O
Exact mass: 294.17321
Instrument type: EI-MS
m/z	relative intensity
39	11
41	35
42	44
53	19
55	37
56	14
67	13
77	20
79	26
80	11
81	68
82	23
94	11
95	23
128	17
129	15
130	45
136	999
137	104
138	12
142	12
143	14
158	18
159	53
