Mass spectrum: 3-((3,6-DIOXO-1,4-CYCLOHEXADIENYL)METHYL)-PARA-TROPOQUINONE; EI-MS
Formula: C14H8O5
Exact mass: 256.03717
Instrument type: EI-MS
m/z	relative intensity
39	177
50	90
51	131
53	224
54	647
55	128
62	107
63	271
64	148
78	112
82	401
89	196
90	171
92	89
115	246
116	255
118	426
144	288
145	74
146	252
147	107
155	79
171	205
172	313
173	77
174	95
175	32
176	20
183	42
184	58
185	15
186	28
187	36
199	52
200	432
201	84
202	29
203	16
212	89
213	64
214	20
227	19
228	999
229	177
230	64
256	245
257	41
258	79
259	15
