Mass spectrum: ORTHO-TOLUENESULFONAMIDE; EI-MS
Formula: C7H9NO2S
Exact mass: 171.0354
Instrument type: EI-MS
m/z	relative intensity
410	28
480	12
500	43
510	74
520	20
530	12
620	32
630	107
640	35
650	263
660	18
690	10
740	13
750	14
760	36
770	68
780	41
790	27
890	198
900	999
910	752
920	61
1030	17
1060	616
1070	155
1080	34
1090	19
1190	19
1360	20
1370	152
1380	16
1540	110
1550	27
1670	20
1710	317
1720	28
1730	16
