Mass spectrum: FLUTOLUANIL; EI-MS
Name: ALPHA-ALPHA-ALPHA-TRIFLURO-3'-ISOPROPOXY-ORTHO-TOLUANILIDE
Formula: C17H16F3NO2
Exact mass: 323.11331
Instrument type: EI-MS
m/z	relative intensity
29	36
41	12
42	20
43	187
44	13
45	38
57	12
61	38
70	18
173	999
174	94
281	312
282	48
323	222
324	42
