Mass spectrum: ISOPENTYL 3,5,5-TRIMETHYLHEXANOATE; EI-MS
Formula: C14H28O2
Exact mass: 228.20893
Instrument type: EI-MS
m/z	relative intensity
27	71
29	123
39	63
41	318
42	74
43	394
44	11
45	10
53	16
55	197
56	109
57	536
58	21
59	20
60	48
61	17
67	11
69	58
70	999
71	425
72	20
83	194
84	14
85	11
87	13
97	22
101	83
102	11
103	20
115	12
125	48
130	64
141	161
142	14
143	104
159	30
171	24
172	24
213	23
