Mass spectrum: LEVULINIC ACID; EI-MS
Name: BETA-ACETYLPROPIONIC ACID
Formula: C5H8O3
Exact mass: 116.04734
Instrument type: EI-MS
m/z	relative intensity
14	11
15	49
26	23
27	9
28	57
29	83
31	11
39	2
41	11
42	49
43	999
44	3
45	76
55	80
56	299
57	2
61	19
71	23
73	68
74	2
99	23
101	34
116	64
