Mass spectrum: DIBENZYL ETHER; EI-MS
Formula: C14H14O
Exact mass: 198.10447
Instrument type: EI-MS
m/z	relative intensity
26	63
27	111
29	178
30	44
31	79
39	382
40	88
41	80
43	16
46	12
49	33
50	348
51	637
52	171
53	51
63	225
64	64
65	467
66	38
75	83
77	716
78	197
79	347
89	101
91	999
92	568
93	55
105	226
107	123
