Mass spectrum: (3AR*,7AR*,8AS*)-2,7,7-TRIMETHYL-1,2,3,3A,5,6,7,7A,8,8A-DECAHYDROCYCLOPENT(F)ISOINDOLE-1,3,5-TRIONE; EI-MS
Formula: C14H17NO3
Exact mass: 247.12084
Instrument type: EI-MS
m/z	relative intensity
39	161
41	187
43	82
50	51
51	123
52	90
53	56
55	95
56	42
57	52
58	76
63	37
65	56
69	45
76	40
77	338
78	999
79	178
91	169
92	39
103	39
105	429
106	297
115	38
120	55
147	39
163	406
164	50
191	258
192	40
205	46
247	279
248	38
