Mass spectrum: 3,4,5-TRIMETHOXYBENZOIC ACID METHYL ESTER; EI-MS
Formula: C11H14O5
Exact mass: 226.08412
Instrument type: EI-MS
m/z	relative intensity
59	13
79	13
95	12
107	18
123	22
124	32
125	19
140	15
151	46
152	16
153	23
155	108
168	24
183	58
195	126
196	20
211	367
212	38
226	999
227	121
228	18
