Mass spectrum: CARYOPHYLLA-3(12),7(13)-DIEN-6-OL; EI-MS
Formula: C15H24O
Exact mass: 220.18272
Instrument type: EI-MS
m/z	relative intensity
41	730
42	130
43	270
44	3
45	50
50	30
51	110
52	8
53	400
54	80
55	460
56	11
57	80
58	100
59	40
63	5
65	195
66	90
67	445
68	10
69	630
70	90
71	110
77	35
78	130
79	580
80	140
81	38
82	190
83	115
84	40
85	4
91	530
92	170
93	435
94	15
95	280
96	100
97	60
103	4
104	65
105	340
106	120
107	30
108	120
109	270
110	80
111	5
115	40
116	40
117	215
118	31
119	260
120	150
121	195
122	10
123	130
124	55
125	35
131	23
132	80
133	205
134	105
135	20
136	999
137	175
138	45
145	10
146	130
147	120
148	40
149	10
150	50
151	50
159	150
160	5
161	80
162	40
163	60
164	10
165	50
174	40
175	40
176	3
177	60
187	80
202	60
203	5
220	30
