Mass spectrum: 4,7-DI(4-ETHOXYPHENYL)-6-(4-METHOXYPHENYL)-1,2,5-THIADIAZOLO(3,4-C)PYRIDINE; EI-MS
Formula: C28H25N3O3S
Exact mass: 483.16166
Instrument type: EI-MS
m/z	relative intensity
32	22
41	24
206	23
213	27
354	49
355	46
366	24
382	22
383	47
397	27
398	34
426	62
438	43
454	220
455	72
456	24
467	35
482	174
483	999
484	343
485	99
1	10
