Mass spectrum: N-ACETYL-ORTHO-ANISIDINE; EI-MS
Formula: C9H11NO2
Exact mass: 165.07898
Instrument type: EI-MS
m/z	relative intensity
42	26
43	337
50	26
51	68
52	117
53	57
57	10
62	11
63	36
64	27
65	108
66	16
77	36
78	36
79	25
80	228
81	17
91	14
92	61
93	26
94	20
95	20
105	12
106	11
108	999
109	73
120	13
122	13
123	892
124	75
133	19
134	13
149	19
165	635
166	65
