Mass spectrum: 5-METHYL-4,4-PENTAMETHYLENE-2-PARA-TOLYLPEPHYDROPYRROLO(3,4-C)PYRROLE-1,3-DIONE; EI-MS
Formula: C19H24N2O2
Exact mass: 312.18378
Instrument type: EI-MS
m/z	relative intensity
42	55
43	52
44	111
45	33
56	41
58	58
82	33
91	41
94	117
95	61
96	39
108	116
128	61
135	39
210	33
256	283
257	67
269	999
270	220
312	336
313	76
