Mass spectrum: 2-SEC-BUTYLCYCLOHEXANONE; EI-MS
Formula: C10H18O
Exact mass: 154.13577
Instrument type: EI-MS
m/z	relative intensity
27	110
29	145
39	119
41	274
42	57
43	48
53	51
54	21
55	386
56	61
57	59
67	45
68	20
69	90
70	195
71	13
77	10
79	22
81	50
83	162
84	14
95	16
97	137
98	999
99	65
107	10
125	113
