Mass spectrum: 2-THIAZOLONE; EI-MS
Formula: C3H3NOS
Exact mass: 100.99353
Instrument type: EI-MS
m/z	relative intensity
12	21
13	19
14	46
18	35
25	22
26	66
27	75
28	889
29	40
32	125
33	18
38	50
39	57
40	153
41	41
43	47
44	112
45	520
46	805
47	37
48	33
56	30
57	130
58	177
59	20
60	32
70	32
71	12
73	444
74	15
75	16
101	999
102	52
103	45
