Mass spectrum: 2,5-BIS(N-HEXYLMETHYLSILYL)THIOPHENE; EI-MS
Formula: C18H36SSi2
Exact mass: 340.20762
Instrument type: EI-MS
m/z	relative intensity
53	84
55	205
56	38
57	91
58	85
59	662
60	56
61	38
67	76
68	37
69	372
70	47
71	156
72	230
73	247
74	27
75	76
77	56
78	21
79	38
81	82
82	39
83	288
84	62
85	370
86	90
87	50
91	26
92	63
93	110
94	32
95	439
96	109
97	154
98	54
99	242
100	476
101	122
102	27
105	24
107	36
108	27
109	147
110	44
111	240
112	37
114	33
115	21
118	21
119	28
121	127
122	24
123	34
125	23
126	37
127	509
128	805
129	187
130	56
131	57
133	42
141	25
144	232
145	120
146	45
147	42
155	37
156	23
157	136
158	39
159	42
169	24
170	61
171	999
172	281
173	222
174	45
178	24
185	51
199	20
211	59
212	74
213	28
255	54
340	22
