Mass spectrum: 4-AMINOBUTYRIC ACID; EI-MS
Name: GAMMA-AMINOBUTYRIC ACID
Formula: C4H9NO2
Exact mass: 103.06333
Instrument type: EI-MS
m/z	relative intensity
15	11
17	13
18	46
26	23
27	62
28	175
29	39
30	999
31	23
39	39
40	11
41	69
42	61
43	129
44	77
45	57
54	13
55	16
56	75
57	12
69	17
84	23
85	13
86	15
103	39
