Mass spectrum: 6-METHYL-6-VINYLDODECANE-5,8-DIONE; EI-MS
Formula: C15H26O2
Exact mass: 238.19328
Instrument type: EI-MS
m/z	relative intensity
39	19
41	131
42	10
43	19
53	14
55	25
57	615
58	31
67	19
68	19
85	999
86	66
94	15
97	21
138	125
139	21
153	87
154	17
181	13
238	37
