Mass spectrum: (2Z,6E)-7-METHYL-1-TRIMETHYLSILYL-3-TRIMETHYLSILYLMETHYL-2,6-OCTADIENE; EI-MS
Formula: C16H34Si2
Exact mass: 282.2199
Instrument type: EI-MS
m/z	relative intensity
41	44
43	15
45	101
59	93
69	27
72	17
73	999
74	113
75	44
85	17
97	56
109	12
125	485
126	80
127	25
137	11
151	14
179	40
193	27
195	17
213	365
214	91
215	36
239	24
267	14
282	174
283	52
284	19
