Mass spectrum: SILACYCLOPENTANE; EI-MS
Formula: C4H10Si
Exact mass: 86.05518
Instrument type: EI-MS
m/z	relative intensity
26	12
27	49
28	63
29	92
30	30
31	48
39	38
41	15
42	31
43	273
44	44
45	38
53	51
54	22
55	77
56	84
57	122
58	999
59	93
60	42
67	12
71	25
83	21
84	36
85	69
86	247
87	27
88	10
