Mass spectrum: 2-METHOXYBENZOIC ACID METHYL ESTER; EI-MS
Formula: C9H10O3
Exact mass: 166.06299
Instrument type: EI-MS
m/z	relative intensity
28	30
77	206
78	22
79	47
91	23
92	72
93	16
105	150
106	32
107	35
120	18
121	16
133	535
134	118
135	999
136	86
137	167
138	15
149	18
151	77
152	15
166	557
167	64
168	6
