Mass spectrum: PYRENE; EI-MS
Formula: C16H10
Exact mass: 202.07825
Instrument type: EI-MS
m/z	relative intensity
39	11
50	11
63	14
74	15
75	14
87	19
88	21
99	13
100	49
101	72
102	12
150	12
174	16
175	10
198	15
199	21
200	103
201	92
202	999
203	192
204	23
