Mass spectrum: 3'-HYDROXY-2',4'-DIMETHOXYACETOPHENONE; EI-MS
Formula: C10H12O4
Exact mass: 196.07356
Instrument type: EI-MS
m/z	relative intensity
43	55
65	21
77	12
82	18
92	15
93	27
95	14
107	19
108	19
110	17
120	86
121	20
123	32
135	62
136	24
137	60
138	24
147	19
148	108
149	117
150	29
151	33
153	59
163	106
164	12
165	16
166	48
167	12
177	26
178	91
179	49
181	999
182	97
183	14
195	11
196	478
197	58
198	7
