Mass spectrum: 1,2-EPOXY-DECANE; EI-MS
Formula: C10H20O
Exact mass: 156.15142
Instrument type: EI-MS
m/z	relative intensity
38	19
39	603
40	130
41	936
42	686
43	930
44	106
45	184
51	26
52	16
53	186
54	450
55	919
56	801
57	677
58	805
59	184
65	27
66	85
67	609
68	780
69	757
70	462
71	999
72	148
73	18
77	19
79	47
80	30
81	561
82	765
83	390
84	131
85	299
86	27
94	20
95	490
96	411
97	173
98	137
99	73
100	14
109	110
110	79
111	15
113	130
114	11
124	65
125	13
126	18
127	52
128	10
155	4
156	4
157	7
