Mass spectrum: PARA-METHOXYBENZOPHENONE; EI-MS
Name: 4-METHOXYPHENYL PHENYL KETONE
Formula: C14H12O2
Exact mass: 212.08373
Instrument type: EI-MS
m/z	relative intensity
15	20
39	18
50	20
51	53
63	56
64	29
76	13
77	133
78	11
92	77
105	214
106	17
107	12
115	17
121	20
135	999
136	90
139	16
141	22
152	10
169	20
181	11
184	13
211	10
212	565
213	293
214	42
