Mass spectrum: METHYL 2,4-DIHYDROXY-3,6-DIMETHYLBENZOATE; EI-MS
Formula: C10H12O4
Exact mass: 196.07356
Instrument type: EI-MS
m/z	relative intensity
15	57
18	17
27	59
28	16
29	33
31	22
38	14
39	99
40	15
41	41
43	47
50	25
51	63
52	42
53	104
54	12
55	72
62	12
63	39
64	13
65	56
66	28
67	69
68	11
69	26
77	138
78	43
79	144
80	54
81	28
83	59
89	16
90	27
91	36
93	14
94	10
106	11
107	167
108	102
109	52
121	22
135	141
136	999
137	98
162	11
163	81
164	943
165	265
166	29
167	10
196	440
197	54
