Mass spectrum: ADAMANTANE; EI-MS
Formula: C10H16
Exact mass: 136.1252
Instrument type: EI-MS
m/z	relative intensity
17	28
18	113
27	98
29	66
39	196
40	26
41	192
42	18
43	11
50	11
51	37
52	20
53	93
54	43
55	64
63	14
65	55
66	55
67	151
68	36
69	18
77	127
78	71
79	382
80	282
81	138
82	42
91	91
92	76
93	415
94	203
95	154
96	11
105	13
107	91
108	36
121	77
135	229
136	999
137	113
