Mass spectrum: (1R,2E,4Z,7E,11E)-CEMBRA-2,4,7,11,15-PENTAENE; EI-MS
Name: CEMBRENENE
Formula: C20H30
Exact mass: 270.23475
Instrument type: EI-MS
m/z	relative intensity
40	80
41	999
42	70
43	25
51	95
52	65
53	395
54	8
55	720
56	60
57	90
60	7
63	55
65	195
66	80
67	44
68	165
69	275
70	55
71	7
73	65
77	470
78	150
79	57
80	240
81	605
82	105
83	10
91	700
92	215
93	815
94	21
95	300
96	55
97	50
103	10
104	75
105	735
106	255
107	60
108	195
109	210
110	55
111	5
115	115
116	85
117	195
118	10
119	745
120	410
121	425
122	11
123	95
128	70
129	115
130	8
131	310
132	185
133	855
134	43
135	170
136	45
141	45
142	5
143	115
144	75
145	345
146	23
147	290
148	125
149	80
157	13
158	95
159	595
160	170
161	14
162	65
163	45
171	115
172	6
173	165
174	85
175	70
176	5
185	165
186	70
187	230
188	8
189	60
190	20
199	115
200	5
201	75
202	70
203	20
213	6
214	45
215	55
216	20
227	10
228	45
229	20
241	45
242	2
255	150
256	55
270	315
271	10
272	15
