Mass spectrum: ANTI-5,8,13,16-TETRAFLUORO-4,6,12,14-TETRAMETHOXY(2.2)METACYCLOPHANE; EI-MS
Formula: C20H20F4O4
Exact mass: 400.12977
Instrument type: EI-MS
m/z	relative intensity
43	103
44	348
570	279
69	124
75	104
101	126
114	163
127	262
140	373
155	174
170	435
171	128
185	113
187	112
199	561
200	188
201	406
214	159
374	113
385	628
386	166
400	999
401	222
