Mass spectrum: 2-HEXYL-3,4-DIACETOXY-1,6-DIOXASPIRO(4,5)DECANE; EI-MS
Formula: C18H30O6
Exact mass: 342.20424
Instrument type: EI-MS
m/z	relative intensity
41	220
42	60
43	999
44	5
45	25
53	20
54	25
55	27
56	50
57	120
58	20
59	4
60	10
61	30
66	10
67	7
68	30
69	80
70	60
71	15
72	15
73	30
79	30
80	2
81	70
82	35
83	160
84	4
85	80
86	20
87	20
91	2
93	20
94	15
95	35
96	8
97	15
98	80
99	35
101	38
107	10
109	25
110	15
111	5
112	50
113	45
114	35
115	3
121	20
122	40
123	20
124	2
125	140
126	80
127	280
128	4
130	50
137	45
139	145
140	22
143	140
155	85
157	45
158	2
165	20
168	70
169	290
182	10
197	35
199	30
200	80
212	2
223	20
228	20
240	15
242	2
257	15
282	50
283	10
342	6
343	15
