Mass spectrum: 4-(3-FLUOROBENZOYL)-3-PHENYL-5-ISOXAZOLONE; EI-MS
Formula: C16H10FNO3
Exact mass: 283.06447
Instrument type: EI-MS
m/z	relative intensity
39	35
50	46
51	65
52	42
63	26
69	11
74	20
75	57
76	38
77	71
78	217
79	16
89	24
94	12
95	232
96	19
102	59
103	23
116	26
123	999
124	90
283	23
