Mass spectrum: OXINE-COPPER; EI-MS
Name: BIS(QUINOLIN-8-OLATO)COPPER
Formula: C18H12CuN2O2
Exact mass: 351.01948
Instrument type: EI-MS
m/z	relative intensity
89	56
90	78
116	39
117	299
118	26
145	50
179	23
207	999
208	108
209	443
210	47
351	824
352	171
353	390
354	79
355	10
