Mass spectrum: 3-FORMYL-2-BUTEN-1-YL ACETATE; EI-MS
Formula: C7H10O3
Exact mass: 142.06299
Instrument type: EI-MS
m/z	relative intensity
27	96
29	94
38	10
39	15
41	52
42	25
43	999
44	3
51	16
53	122
54	116
55	9
57	16
61	14
69	17
71	49
72	23
81	68
82	429
83	24
84	12
99	31
100	397
101	23
