Mass spectrum: 3-(4-FLUOROBENZOYL)PROPIONIC ACID; EI-MS
Formula: C10H9FO3
Exact mass: 196.05357
Instrument type: EI-MS
m/z	relative intensity
95	13
123	999
124	77
179	14
196	144
197	16
