Mass spectrum: 2,6-BIS(METHYLPHENYLSILYL)NAPHTHALENE; EI-MS
Formula: C24H24Si2
Exact mass: 368.14165
Instrument type: EI-MS
m/z	relative intensity
43	147
44	14
45	13
53	36
77	10
91	35
93	18
95	24
103	16
105	220
106	32
107	17
119	34
121	239
122	34
123	14
129	45
130	60
135	38
136	19
137	44
138	25
145	12
153	12
155	60
156	11
167	48
168	22
169	105
170	31
171	20
175	10
176	15
179	13
181	18
183	30
185	23
195	19
197	316
198	61
199	17
202	19
205	17
215	22
229	22
230	12
231	75
232	22
233	26
240	10
245	48
246	16
247	999
248	244
249	60
273	10
275	84
276	26
277	11
290	88
291	31
292	10
309	53
310	14
323	10
353	89
354	30
355	12
368	380
369	149
370	51
372	12
