Mass spectrum: (Z)-4-(1-CYCLOHEXENYL)-3-METHYL-2-BUTENYLTRIMETHYLSILANE; EI-MS
Formula: C14H26Si
Exact mass: 222.18038
Instrument type: EI-MS
m/z	relative intensity
39	15
41	41
43	17
44	11
45	96
53	22
55	21
59	71
67	19
72	15
73	999
74	112
75	49
77	17
79	27
80	16
81	16
85	12
91	33
92	12
93	13
105	51
106	62
107	14
119	21
120	11
133	40
135	10
139	32
148	97
149	16
207	15
222	89
223	20
