Mass spectrum: PYRENE; EI-MS
Formula: C16H10
Exact mass: 202.07825
Instrument type: EI-MS
m/z	relative intensity
18	14
74	11
75	12
78	51
87	28
88	46
99	22
100	121
101	179
102	30
150	11
174	17
175	12
198	19
199	27
200	155
201	130
202	999
203	179
204	14
