Mass spectrum: 7-TOLYLPERHYDROPYRROLO(3',4':3,4)PYRROLO(1,2-C)THIAZOLE-6,8-DIONE (8A,8B-TRANS); EI-MS
Formula: C15H16N2O2S
Exact mass: 288.09325
Instrument type: EI-MS
m/z	relative intensity
38	140
40	183
41	116
42	188
44	61
51	59
53	123
54	70
55	176
57	62
65	75
67	79
68	69
73	48
77	84
78	76
80	237
81	999
82	85
91	76
94	101
100	86
101	256
107	75
108	83
132	72
133	81
242	743
243	119
255	84
288	531
289	87
69	66
