Mass spectrum: TRIETHYL ORTHOACETATE; EI-MS
Name: 1,1,1-TRIETHOXYETHANE
Formula: C8H18O3
Exact mass: 162.12559
Instrument type: EI-MS
m/z	relative intensity
18	106
28	39
29	94
30	28
31	750
32	42
42	62
43	834
44	34
45	999
46	427
47	15
59	15
60	431
61	520
62	16
70	212
71	16
72	31
73	117
75	12
82	17
87	108
88	116
89	265
90	13
91	13
102	15
103	15
105	23
116	862
117	80
118	10
119	15
123	17
128	13
134	46
