Mass spectrum: 4-CYANO-5-METHYL-6-PHENYL-2-(PARA-TOLYL)PERHYDROPYRROLO(3,4-C)PYRROLE-1,3-DIONE (3A,4-CIS-6,6A-CIS); EI-MS
Name: (4S,6R)-4-CYANO-5-METHYL-6-PHENYL-2-(PARA-TOLYL)PERHYDROPYRROLO(3,4-C)PYRROLE-1,3-DIONE
Formula: C21H19N3O2
Exact mass: 345.14773
Instrument type: EI-MS
m/z	relative intensity
42	65
65	27
77	59
78	32
89	31
91	59
104	27
107	113
115	83
116	108
117	31
118	141
131	70
132	69
133	32
143	38
156	30
157	898
158	999
159	114
160	89
183	98
184	54
268	72
318	27
344	68
345	676
346	173
