Mass spectrum: (1'S)-N-(1'-PHENYLETHYL)-3-HYDROXY-2,2-DIMETHYLPROPANAMIDE; EI-MS
Formula: C13H19NO2
Exact mass: 221.14158
Instrument type: EI-MS
m/z	relative intensity
41	67
42	65
51	59
55	119
56	273
73	205
77	230
78	83
79	154
87	83
91	83
103	100
104	224
105	999
106	543
120	166
132	291
147	155
192	66
207	59
222	535
223	90
