Mass spectrum: 4-HYDROXYTROPOLONE; EI-MS
Formula: C7H6O3
Exact mass: 138.03169
Instrument type: EI-MS
m/z	relative intensity
37	155
38	237
39	647
40	155
41	91
42	157
43	175
49	64
50	171
51	189
52	118
53	322
54	193
55	136
61	64
62	97
63	263
64	174
65	69
66	64
68	85
69	197
71	46
80	43
82	274
83	507
84	183
110	999
111	324
112	62
139	112
140	46
