Mass spectrum: (R-(1-BETA,4-BETA,4A-BETA,5-ALPHA,5A-BETA,6-BETA,9-BETA,9A-BETA,11-ALPHA,11A-BETA))-1,4,4A,5A,6,9,9A,10,11,11A-DODECAHYDRO-5,11-DIHYDROXY-5,11-EPOXY-1,4:6,9-DIMETHANODIBENZO(A,D)CYCLOHEPTEN-10-ONE; EI-MS
Formula: C17H18O4
Exact mass: 286.12051
Instrument type: EI-MS
m/z	relative intensity
38	195
39	78
40	63
51	78
55	125
63	65
65	279
66	410
67	85
77	133
78	95
79	90
82	106
91	414
92	104
93	88
115	75
117	107
119	131
120	69
128	91
129	67
131	77
136	348
137	67
145	110
147	100
148	118
154	53
155	27
156	45
157	43
160	31
161	48
173	158
174	834
175	136
187	53
189	65
190	33
192	91
201	60
202	999
203	190
207	28
220	40
221	42
240	51
268	274
269	55
