Mass spectrum: 2,5-DIMETHYLCYCLOPENTANONE(2,5-D2); EI-MS
Formula: C7H12O
Exact mass: 112.08882
Instrument type: EI-MS
m/z	relative intensity
28	45
29	55
30	27
41	110
42	174
43	999
44	217
45	43
55	93
56	412
57	317
58	136
59	102
67	55
68	30
69	442
70	262
71	265
72	56
81	92
82	42
83	40
84	62
85	72
86	99
96	70
99	173
113	58
114	686
115	58
