Mass spectrum: 3,4-METHYLENEDIOXYPHENYLACETIC ACID; EI-MS
Formula: C9H8O4
Exact mass: 180.04226
Instrument type: EI-MS
m/z	relative intensity
39	8
51	52
52	7
65	10
77	159
78	21
79	30
105	51
106	10
135	999
136	91
137	11
179	13
180	542
181	55
182	7
