Mass spectrum: DIISOPROPYL MALONATE; EI-MS
Formula: C9H16O4
Exact mass: 188.10486
Instrument type: EI-MS
m/z	relative intensity
15	25
27	126
28	17
29	2
31	17
39	59
40	13
41	18
42	118
43	999
44	34
45	12
57	17
59	256
60	143
61	2
69	21
87	370
88	17
102	10
105	324
106	13
111	147
118	2
129	294
130	21
131	38
147	5
172	21
