Mass spectrum: 3-AMINOBENZYL BENZOATE HYDROCHLORIDE; EI-MS
Name: (3-BENZOYLOXYMETHYL)PHENYLAMMONIUM CHLORIDE
Formula: C14H14ClNO2
Exact mass: 263.07131
Instrument type: EI-MS
m/z	relative intensity
27	18
29	13
30	20
35	39
36	214
37	13
38	78
39	63
40	18
41	24
42	12
44	17
50	40
51	144
52	40
53	29
54	18
63	21
64	11
65	62
66	28
67	15
74	12
75	11
76	23
77	582
78	130
79	99
80	21
89	14
92	48
93	27
94	551
95	41
104	142
105	829
106	559
107	49
120	30
121	205
122	953
123	82
227	999
228	167
229	16
