Mass spectrum: NAPHTHACENE; EI-MS
Name: 2,3-BENZANTHRACENE
Formula: C18H12
Exact mass: 228.0939
Instrument type: EI-MS
m/z	relative intensity
29	11
39	11
40	19
88	12
100	19
101	30
112	15
113	41
114	102
200	25
201	13
202	27
224	33
225	30
226	168
227	55
228	999
229	194
230	20
