Mass spectrum: METHYL RICINOLEATE; EI-MS
Formula: C19H36O3
Exact mass: 312.26645
Instrument type: EI-MS
m/z	relative intensity
15	31
27	81
29	154
31	32
39	74
41	411
42	67
43	362
44	40
45	28
53	41
54	153
55	999
56	85
57	114
59	122
65	11
66	11
67	208
68	145
69	325
70	41
71	52
73	24
74	406
75	30
77	14
79	47
80	27
81	174
82	206
83	202
84	346
85	52
87	237
88	21
91	14
93	27
94	33
95	102
96	309
97	309
98	293
99	25
101	37
107	16
108	18
109	45
110	93
111	63
112	16
113	29
114	29
115	76
116	13
119	23
121	11
122	68
123	115
124	283
125	75
127	13
128	29
129	13
137	77
138	34
141	22
148	41
149	13
151	10
155	15
166	333
167	38
195	22
198	81
199	12
