Mass spectrum: 5-BENZYL-2-PARA-TOLYLPERHYDROPYRROLO(3,4-C)PYRROLE-1,3-DIONE; EI-MS
Formula: C20H20N2O2
Exact mass: 320.15248
Instrument type: EI-MS
m/z	relative intensity
32	382
39	95
41	103
42	295
43	87
44	42
52	43
54	39
56	75
58	44
65	126
67	65
68	159
77	62
78	43
91	999
92	279
104	63
105	40
106	47
107	39
118	88
131	49
132	152
133	220
158	142
159	45
202	57
228	84
229	729
230	151
243	228
319	252
320	800
321	183
