Mass spectrum: PROPYL ACETOACETATE; EI-MS
Name: ACETOACETIC ACID PROPYL ESTER
Formula: C7H12O3
Exact mass: 144.07864
Instrument type: EI-MS
m/z	relative intensity
26	64
27	295
28	43
29	149
30	15
31	129
37	15
38	25
39	123
40	23
41	243
43	999
44	30
45	11
55	14
57	12
58	31
59	17
60	85
61	59
69	68
73	12
84	58
85	148
87	21
102	49
103	66
144	11
