Mass spectrum: IODOETHANE (2,2,2-D3); EI-MS
Formula: C2H5I
Exact mass: 155.94359
Instrument type: EI-MS
m/z	relative intensity
18	15
26	13
27	52
28	177
29	357
30	117
31	36
32	999
33	27
48	11
127	169
128	22
129	26
139	10
140	12
141	15
158	16
159	757
160	25
