Mass spectrum: (2S,2AR,5AS)-1-BENZOYL-3,5-DIOXO-2,4-DIPHENYL-1,2,3,4,5,6-HEXAHYDROPYRROLO(3,4-C)PYRROLE; EI-MS
Formula: C25H20N2O3
Exact mass: 396.14739
Instrument type: EI-MS
m/z	relative intensity
50	27
51	127
52	15
54	18
55	16
63	18
64	20
65	29
67	14
68	28
69	19
76	23
77	605
90	22
91	116
92	12
93	12
103	24
105	999
106	89
115	40
116	15
117	56
118	51
119	20
128	21
143	15
144	50
145	10
173	26
188	74
208	10
209	66
210	12
248	23
291	136
292	30
78	57
84	24
86	15
89	21
129	23
131	10
396	104
397	28
