Mass spectrum: 2-PYRIDINEACETIC ACID ETHYL ESTER; EI-MS
Formula: C9H11NO2
Exact mass: 165.07898
Instrument type: EI-MS
m/z	relative intensity
27	13
29	249
39	20
65	156
66	50
78	15
79	14
91	17
92	622
93	999
94	73
106	30
119	28
120	278
121	23
136	28
165	162
166	23
167	2
