Mass spectrum: N-(4-CHLOROPHENYL)-1-CYCLOHEXENE-1,2-DICARBOXIMIDE; EI-MS
Formula: C14H12ClNO2
Exact mass: 261.05566
Instrument type: EI-MS
m/z	relative intensity
39	21
50	12
51	30
52	58
53	14
63	17
65	10
66	10
75	17
77	70
78	19
79	162
80	88
90	19
99	17
107	59
108	93
111	21
125	20
127	14
138	18
153	20
155	10
167	26
170	18
177	12
180	18
181	14
182	148
183	26
188	19
190	11
198	26
204	11
216	46
217	43
218	21
219	18
232	20
233	16
260	19
261	999
262	172
263	360
264	56
