Mass spectrum: PHENYLPHOSPHONIC ACID; EI-MS
Formula: C6H7O3P
Exact mass: 158.01328
Instrument type: EI-MS
m/z	relative intensity
38	13
39	39
47	49
50	87
51	161
52	16
63	20
64	16
65	59
66	99
74	45
75	29
76	37
77	168
78	59
81	81
93	15
94	999
95	69
139	18
140	17
141	20
158	414
159	49
