Mass spectrum: 3-METHOXYPHENYLACETIC ACID; EI-MS
Formula: C9H10O3
Exact mass: 166.06299
Instrument type: EI-MS
m/z	relative intensity
39	9
41	12
53	9
55	9
65	49
77	93
78	52
79	35
89	11
90	17
91	285
92	45
93	8
105	10
106	27
107	55
121	948
122	139
123	18
148	10
166	999
167	102
168	10
