Mass spectrum: 3-ETHOXYCARBONYL-6-ISOPROPYL-1-OXA-3,3A,4,5,6,7,8,8A-OCTAHYDROAZULEN-2(1H)-ONE; EI-MS
Formula: C15H24O4
Exact mass: 268.16746
Instrument type: EI-MS
m/z	relative intensity
52	14
55	18
58	34
59	192
60	11
67	13
68	16
69	674
70	45
71	79
72	11
73	356
74	34
75	27
81	53
82	12
85	18
89	128
95	11
100	10
101	999
102	80
111	12
138	10
141	14
142	48
242	10
