Mass spectrum: 1-METHYLSILACYCLOBUTANE; EI-MS
Formula: C4H10Si
Exact mass: 86.05518
Instrument type: EI-MS
m/z	relative intensity
43	313
44	38
45	77
55	12
57	14
58	999
59	107
60	39
70	23
71	54
85	29
86	335
87	39
88	14
