Mass spectrum: BENZYL BROMIDE; EI-MS
Name: ALPHA-BROMOTOLUENE
Formula: C7H7Br
Exact mass: 169.97311
Instrument type: EI-MS
m/z	relative intensity
26	10
27	17
37	12
38	43
39	167
40	19
41	39
50	68
51	98
52	45
61	19
62	57
63	166
64	62
65	354
66	17
79	25
81	33
86	14
89	148
90	83
91	999
92	179
170	159
171	13
172	152
173	12
