Mass spectrum: METHYL 2,REF.-4-DIMETHYL-TRANS-5-PHENYL-1-PYRROLINE-4-CARBOXYLATE; EI-MS
Name: METHYL (4R,5R)-2,4-DIMETHYL-5-PHENYL-1-PYRROLINE-4-CARBOXYLATE
Formula: C14H17NO2
Exact mass: 231.12593
Instrument type: EI-MS
m/z	relative intensity
39	150
41	222
42	57
43	61
51	96
63	92
77	121
89	330
90	500
91	157
103	70
104	133
115	98
116	63
128	58
129	87
130	464
131	999
132	106
143	21
144	33
156	29
157	25
158	40
170	29
171	45
172	169
173	22
190	32
231	115
232	18
