Mass spectrum: 1,1,2,3,3-PENTAMETHYL-5-(1-METHYL-2-HYDROXYETHYL)-INDAN; EI-MS
Formula: C17H26O
Exact mass: 246.19837
Instrument type: EI-MS
m/z	relative intensity
43	100
57	60
71	130
129	4
131	150
143	30
159	40
173	999
174	150
229	40
