Mass spectrum: ORTHO-FLUOROBENZALDEHYDE; EI-MS
Name: 2-FLUOROBENZALDEHYDE
Formula: C7H5FO
Exact mass: 124.03244
Instrument type: EI-MS
m/z	relative intensity
29	43
31	13
37	19
38	17
39	25
43	12
49	15
50	102
51	48
57	23
61	17
62	21
63	23
68	39
69	62
70	68
73	14
74	64
75	182
76	43
77	13
92	11
93	13
94	36
95	428
96	113
123	999
124	825
125	83
