Mass spectrum: (E)-3-BENZOYLMETHYLENE-1-METHYL-2,5-PYRROLIDINEDIONE; EI-MS
Formula: C13H11NO3
Exact mass: 229.07389
Instrument type: EI-MS
m/z	relative intensity
27	30
28	27
38	52
39	217
50	77
51	253
58	46
66	45
67	107
74	29
75	28
76	39
77	691
78	64
105	999
106	79
115	101
116	129
144	184
151	36
171	125
172	80
200	43
201	31
212	84
228	53
229	453
230	69
