Mass spectrum: 2-PARA-TOLYLPERHYDROPYRROLO(3,4-C)PYRROLIZINE-1,3-DIONE (8A,8B-TRANS); EI-MS
Formula: C16H18N2O2
Exact mass: 270.13683
Instrument type: EI-MS
m/z	relative intensity
40	312
41	95
42	322
43	196
44	125
52	208
53	135
54	179
55	115
56	500
65	119
67	118
68	224
70	207
76	59
77	312
78	217
79	92
80	536
81	586
82	230
83	999
90	77
91	202
93	35
94	46
95	27
102	36
103	30
104	260
105	93
106	99
107	83
108	274
109	79
117	97
130	55
131	26
132	282
133	306
134	69
143	44
144	26
146	38
158	37
159	28
186	48
187	128
188	35
228	27
242	39
270	146
271	26
