Mass spectrum: 2-PHENOXYBENZOIC ACID; EI-MS
Formula: C13H10O3
Exact mass: 214.06299
Instrument type: EI-MS
m/z	relative intensity
27	11
38	15
39	69
45	11
50	40
51	104
63	39
64	26
65	90
66	17
74	16
75	15
76	14
77	99
78	11
91	13
92	75
93	59
94	76
115	51
120	90
121	999
122	83
139	48
140	13
141	46
168	55
169	39
197	91
198	13
214	738
215	111
216	12
