Mass spectrum: (ALPHA,ALPHA,ALPHA-TRIFLUORO-PARA-TOLYL)ACETIC ACID; EI-MS
Formula: C9H7F3O2
Exact mass: 204.03981
Instrument type: EI-MS
m/z	relative intensity
43	82
44	23
45	37
55	3
56	35
57	49
58	35
60	4
69	29
70	29
71	35
83	2
85	20
91	480
92	55
109	10
110	13
119	35
135	57
140	3
149	20
158	20
159	999
160	31
161	24
180	37
185	31
186	2
204	584
205	64
