Mass spectrum: ETHYL MANDELATE; EI-MS
Formula: C10H12O3
Exact mass: 180.07864
Instrument type: EI-MS
m/z	relative intensity
27	64
28	11
29	104
31	3
38	11
39	32
45	14
50	3
51	86
52	25
53	21
56	1
57	11
63	14
77	239
78	4
79	439
80	29
89	11
90	1
105	75
106	18
107	999
108	9
180	82
181	11
