Mass spectrum: 2,6-DIAMINOANTHRAQUINONE; EI-MS
Formula: C14H10N2O2
Exact mass: 238.07423
Instrument type: EI-MS
m/z	relative intensity
50	17
51	15
52	13
62	15
63	35
64	14
70	14
71	17
75	16
76	24
77	26
82	12
83	10
84	99
89	19
90	13
91	17
97	38
105	15
113	17
114	16
115	25
126	16
127	14
128	11
139	156
140	68
141	27
151	14
152	17
154	24
164	17
165	13
166	110
167	300
168	199
169	332
170	45
180	15
181	18
182	28
194	82
195	200
196	32
203	14
208	14
209	14
210	47
220	19
222	69
223	999
224	158
225	15
237	43
238	253
239	49
