Mass spectrum: ORTHO-AMINOPHENOL; EI-MS
Name: ORTHO-HYDROXYANILINE
Formula: C6H7NO
Exact mass: 109.05276
Instrument type: EI-MS
m/z	relative intensity
26	35
27	84
28	99
29	37
30	13
37	24
38	52
39	96
40	30
41	48
42	27
49	14
50	55
51	71
52	125
53	163
54	80
55	27
61	10
62	19
63	80
64	77
65	32
66	13
76	10
78	17
79	16
80	519
81	61
91	19
92	16
108	72
109	999
110	124
