Mass spectrum: METHYL LAURATE; EI-MS
Formula: C13H26O2
Exact mass: 214.19328
Instrument type: EI-MS
m/z	relative intensity
43	41
55	23
57	36
59	2
69	27
71	18
74	999
75	15
83	18
84	23
85	14
87	45
88	63
97	23
98	18
101	5
115	36
129	54
140	14
143	10
144	14
157	27
171	72
172	1
183	41
185	32
214	109
215	23
