Mass spectrum: 4-HYDROXY-3-METHOXYBENZOIC ACID METHYL ESTER; EI-MS
Formula: C9H10O4
Exact mass: 182.05791
Instrument type: EI-MS
m/z	relative intensity
65	14
67	11
77	12
93	10
108	29
111	27
123	111
124	11
136	14
137	14
139	29
151	999
152	93
153	10
167	53
181	13
182	807
183	87
184	14
