Mass spectrum: METHYL TRIACETYL-ALPHA-L-RHAMNOPYRANOSIDE; EI-MS
Formula: C13H20O8
Exact mass: 304.11582
Instrument type: EI-MS
m/z	relative intensity
41	60
42	50
43	999
44	12
45	130
47	60
48	30
49	2
50	10
53	23
54	15
55	6
56	20
57	70
58	80
59	4
60	50
61	80
69	50
70	3
71	310
72	40
73	100
74	46
75	30
81	20
82	130
83	35
84	90
85	190
86	20
87	34
88	30
89	15
95	10
96	13
97	30
98	50
99	260
100	28
101	100
102	430
103	280
104	2
110	20
111	180
112	25
113	28
114	40
115	610
116	210
117	5
118	10
120	10
125	35
126	8
127	43
128	18
129	120
130	1
131	10
140	160
141	30
142	25
143	70
144	260
145	120
146	1
153	150
156	18
157	840
158	12
159	25
171	40
172	8
184	37
185	190
186	23
187	25
188	1
200	30
201	25
202	8
212	1
213	15
217	25
244	27
245	1
273	100
274	15
