Mass spectrum: TRANS-2-HEXENYL DECANOATE; EI-MS
Formula: C16H30O2
Exact mass: 254.22458
Instrument type: EI-MS
m/z	relative intensity
15	13
16	12
26	13
27	157
29	93
32	33
38	24
39	169
40	39
41	719
42	130
43	506
45	18
50	23
51	20
52	15
53	81
54	127
55	706
56	100
57	473
58	18
59	12
60	37
65	36
66	19
67	585
68	56
69	166
70	42
71	469
72	32
73	41
77	13
79	34
80	12
81	144
82	605
83	324
84	63
85	253
86	23
87	25
95	102
96	23
97	50
98	40
99	76
100	66
101	19
109	17
110	18
111	40
112	13
114	11
115	17
127	17
129	21
135	30
137	18
142	11
153	43
155	999
156	106
171	11
172	28
173	14
211	16
225	35
254	45
