Mass spectrum: 1-VINYLPYRROLIDINE-2-ONE; EI-MS
Formula: C6H9NO
Exact mass: 111.06841
Instrument type: EI-MS
m/z	relative intensity
27	27
28	194
29	17
30	18
39	16
40	10
41	93
42	68
54	86
55	72
56	999
57	38
68	87
69	19
82	96
83	81
110	24
111	718
112	57
113	3
