Mass spectrum: PERYLENE; EI-MS
Name: DIBENZ(DE,KL)ANTHRACENE
Formula: C20H12
Exact mass: 252.0939
Instrument type: EI-MS
m/z	relative intensity
28	10
29	11
40	20
112	27
113	37
124	36
125	108
126	152
224	21
225	12
226	151
248	42
249	36
250	201
251	67
252	999
253	216
254	23
