Mass spectrum: 9,12-DIOXO-5,6,7,9,12,14,15,16-OCTAHYDRO-6,15-METHANOBENZO(A)NAPHTHO(2,3-F)CYCLODECENE; EI-MS
Formula: C23H20O2
Exact mass: 328.14633
Instrument type: EI-MS
m/z	relative intensity
77	53
91	97
103	55
104	110
105	98
115	119
127	52
128	143
129	98
141	80
143	139
186	122
198	101
212	115
223	108
328	999
329	250
