Mass spectrum: 1,1,1-TRIMETHOXYETHANE; EI-MS
Formula: C5H12O3
Exact mass: 120.07864
Instrument type: EI-MS
m/z	relative intensity
14	45
15	245
26	14
27	65
28	47
29	158
30	21
31	115
32	64
42	149
43	999
44	25
45	64
47	72
57	61
58	34
59	28
88	169
89	442
90	20
105	72
