Mass spectrum: (1R)-N-(2-HYDROXY-1-PHENYLETHYL)PROPANAMIDE; EI-MS
Formula: C11H15NO2
Exact mass: 193.11028
Instrument type: EI-MS
m/z	relative intensity
28	136
29	135
57	149
77	113
79	89
91	78
103	52
104	110
106	999
107	89
119	72
162	304
163	133
175	59
194	4
195	1
