Mass spectrum: (E)-1-(METHYLDIPHENYL)-4-METHYLBUT-1-EN-3-YNE; EI-MS
Formula: C18H18Si
Exact mass: 262.11778
Instrument type: EI-MS
m/z	relative intensity
32	18
36	15
41	29
42	60
43	68
45	20
56	83
57	110
58	27
59	63
71	23
78	26
82	30
83	12
84	15
86	16
97	11
105	93
106	14
119	12
120	768
121	999
122	134
123	35
131	12
133	31
134	67
135	11
141	15
142	36
143	14
144	19
145	85
146	44
147	31
158	33
159	45
160	19
169	178
170	30
171	25
178	13
183	76
184	466
185	94
186	25
197	15
202	39
203	48
204	27
205	11
207	182
208	44
209	13
217	32
218	14
219	11
220	10
221	26
222	69
223	16
233	14
234	67
235	15
245	64
246	23
247	808
248	164
249	36
260	14
261	65
262	155
263	36
264	10
