Mass spectrum: 4-METHYL-2-PIPERIDONE; EI-MS
Formula: C6H11NO
Exact mass: 113.08406
Instrument type: EI-MS
m/z	relative intensity
27	122
28	104
29	104
30	42
31	68
39	164
40	53
41	50
42	461
43	355
44	45
45	3
53	48
54	45
55	434
56	50
57	201
58	49
67	30
68	9
69	290
70	78
71	166
72	3
83	56
84	91
85	144
96	7
98	32
112	174
113	999
114	95
