Mass spectrum: 4-BENZOYL-3-PHENYL-5-ISOXAZOLONE; EI-MS
Formula: C16H11NO3
Exact mass: 265.07389
Instrument type: EI-MS
m/z	relative intensity
39	10
50	22
51	68
63	15
75	10
76	30
77	268
78	35
89	22
102	64
103	27
104	10
105	999
106	197
116	24
265	18
