Mass spectrum: DIBENZOYL; EI-MS
Formula: C14H10O2
Exact mass: 210.06808
Instrument type: EI-MS
m/z	relative intensity
27	15
28	31
39	14
50	63
51	194
52	10
74	17
75	12
76	17
77	382
78	32
105	999
106	78
210	25
211	11
