Mass spectrum: PROPIONAMIDE; EI-MS
Formula: C3H7NO
Exact mass: 73.05276
Instrument type: EI-MS
m/z	relative intensity
430	21
440	999
450	48
540	15
550	53
560	27
570	171
720	83
730	468
740	19
1910	12
