Mass spectrum: METHYL 2-(4'-(2-TRIMETHYLSILYLOXY-2-METHYLPROPYL)PHENYL)PROPIONATE; EI-MS
Formula: C17H28O3Si
Exact mass: 308.18077
Instrument type: EI-MS
m/z	relative intensity
52	11
59	12
73	137
74	11
75	43
79	49
91	21
116	31
118	57
119	36
131	999
132	123
133	42
147	21
159	33
161	15
178	50
250	122
251	21
293	28
