Mass spectrum: 3-CYANOBENZYL BROMIDE; EI-MS
Name: ALPHA-BROMO-M-TOLUNITRILE
Formula: C8H6BrN
Exact mass: 194.96836
Instrument type: EI-MS
m/z	relative intensity
37	10
38	20
39	43
50	27
51	23
61	15
62	35
63	61
64	24
65	11
75	14
76	13
87	14
88	32
89	150
90	38
114	33
115	35
116	999
117	95
194	56
195	68
196	61
197	66
