Mass spectrum: DIMETHYL MALONATE; EI-MS
Formula: C5H8O4
Exact mass: 132.04226
Instrument type: EI-MS
m/z	relative intensity
15	86
27	14
29	117
31	1
42	66
43	157
45	47
57	26
58	83
59	619
60	16
69	4
72	10
74	538
75	21
100	5
101	999
102	53
104	31
132	73
