Mass spectrum: 3'-NITROACETOPHENONE; EI-MS
Formula: C8H7NO3
Exact mass: 165.04259
Instrument type: EI-MS
m/z	relative intensity
15	26
30	34
37	11
38	20
39	30
42	16
43	307
46	14
50	144
51	59
61	11
62	23
63	48
64	24
65	37
73	11
74	73
75	93
76	233
77	71
89	24
90	11
91	68
92	52
104	305
105	25
119	14
122	22
150	999
151	82
165	232
166	24
