Mass spectrum: ISOPROPYLDIMETHYLSILANE; EI-MS
Formula: C5H14Si
Exact mass: 102.08648
Instrument type: EI-MS
m/z	relative intensity
28	14
31	20
41	10
42	11
43	29
44	15
45	39
57	13
58	403
59	999
60	100
61	47
71	16
73	57
85	11
86	23
87	39
101	34
102	106
103	21
