Mass spectrum: 2,3-BENZOFURAN; EI-MS
Formula: C8H6O
Exact mass: 118.04186
Instrument type: EI-MS
m/z	relative intensity
26	20
27	19
29	24
37	31
38	59
39	103
40	15
43	19
45	40
49	12
50	52
51	53
59	46
61	40
62	97
63	226
64	64
74	12
85	12
86	21
87	19
88	10
89	324
90	336
91	26
118	999
119	89
