Mass spectrum: PENTAMETHYLDISILANE; EI-MS
Formula: C5H16Si2
Exact mass: 132.07905
Instrument type: EI-MS
m/z	relative intensity
43	11
45	31
58	10
59	31
72	10
73	999
74	80
75	29
101	10
116	22
117	150
118	22
119	10
131	10
132	133
133	22
