Mass spectrum: 3-METHYL-3-BUTEN-1-YL ACETATE; EI-MS
Formula: C7H12O2
Exact mass: 128.08373
Instrument type: EI-MS
m/z	relative intensity
27	40
29	29
39	66
40	4
41	83
42	32
43	999
44	3
53	77
55	12
61	13
67	25
68	775
69	60
73	38
