Mass spectrum: 1,4-DINITROBENZENE; EI-MS
Formula: C6H4N2O4
Exact mass: 168.01711
Instrument type: EI-MS
m/z	relative intensity
18	22
26	17
28	35
30	999
37	50
38	87
39	53
46	79
49	21
50	610
51	71
52	28
53	33
54	12
61	34
62	66
63	191
64	206
65	14
73	43
74	289
75	742
76	606
77	50
92	210
93	16
122	230
123	17
152	19
168	789
169	61
