Mass spectrum: 12-HYDROXYDODECANOIC ACID; EI-MS
Formula: C12H24O3
Exact mass: 216.17254
Instrument type: EI-MS
m/z	relative intensity
15	23
17	26
18	108
19	15
26	25
27	292
28	111
29	384
30	14
31	517
39	191
40	42
41	834
42	226
43	387
44	36
45	135
53	66
54	120
55	999
56	243
57	170
58	19
59	46
60	379
61	46
66	14
67	160
68	254
69	573
70	145
71	97
72	11
73	404
74	39
79	28
80	34
81	138
82	196
83	399
84	530
85	79
86	14
87	102
88	14
93	18
94	48
95	107
96	180
97	242
98	734
99	74
100	48
101	72
102	14
107	13
108	32
109	62
110	124
111	99
112	235
113	39
114	57
115	43
116	18
119	12
121	17
123	55
124	50
125	37
126	74
127	25
129	123
130	22
133	15
134	14
136	40
137	49
138	67
139	26
140	13
143	51
151	34
152	63
153	11
155	19
157	13
162	42
170	10
180	42
187	23
198	28
