Mass spectrum: (Z)-1,4-BISTRIMETHYLSILYL-2-BUTENE; EI-MS
Formula: C10H24Si2
Exact mass: 200.14165
Instrument type: EI-MS
m/z	relative intensity
43	25
44	15
45	122
46	10
58	13
59	31
71	12
72	14
73	999
74	100
75	39
85	10
95	14
97	287
98	33
99	12
112	348
113	47
114	15
200	111
201	26
202	11
