Mass spectrum: 6,6-DIETHOXY-4-HEXYN-3-OL; EI-MS
Formula: C10H18O3
Exact mass: 186.12559
Instrument type: EI-MS
m/z	relative intensity
27	13
29	129
31	11
41	108
43	177
45	17
47	35
53	15
55	79
57	208
58	12
59	23
65	17
67	182
68	13
69	18
71	67
73	10
75	30
81	15
82	11
83	101
84	47
85	277
86	17
95	101
96	10
97	16
99	26
101	15
103	41
111	225
112	33
113	69
127	28
139	123
140	16
141	999
142	89
169	11
185	25
186	3
