Mass spectrum: BUTYLDIMETHYLSILANE; EI-MS
Formula: C6H16Si
Exact mass: 116.10213
Instrument type: EI-MS
m/z	relative intensity
27	41
28	20
29	39
31	64
32	11
39	20
41	27
42	23
43	146
44	36
45	131
46	12
53	14
55	24
56	32
57	25
58	152
59	999
60	83
61	40
71	16
72	54
73	129
74	17
85	12
86	70
87	223
88	31
89	11
101	75
102	11
114	105
115	55
116	24
