Mass spectrum: 1-METHYLSILACYCLOHEXANE; EI-MS
Formula: C6H14Si
Exact mass: 114.08648
Instrument type: EI-MS
m/z	relative intensity
41	13
43	74
44	30
45	94
57	18
58	531
59	156
60	25
67	10
68	16
70	26
71	320
72	222
73	74
74	12
83	13
84	35
85	245
86	999
87	100
88	38
97	79
98	26
99	210
100	24
112	49
113	237
114	539
115	72
116	22
