Mass spectrum: 9-FLUORENONE; EI-MS
Formula: C13H8O
Exact mass: 180.05751
Instrument type: EI-MS
m/z	relative intensity
27	17
38	13
39	45
50	48
51	36
62	24
63	78
74	49
75	61
76	122
77	14
86	18
87	27
90	15
98	21
99	20
100	10
102	16
125	15
126	54
150	85
151	140
152	329
153	43
180	999
181	149
182	13
