Mass spectrum: 2-METHYL-1-PHENYLPROPANOL; EI-MS
Formula: C10H14O
Exact mass: 150.10447
Instrument type: EI-MS
m/z	relative intensity
29	50
32	112
39	91
41	60
43	97
50	51
51	126
52	36
53	33
77	308
78	73
79	564
80	37
91	53
105	104
107	999
108	111
150	39
