Mass spectrum: N,N-DIMETHYLISOPROPYLAMINE; EI-MS
Formula: C5H13N
Exact mass: 87.1048
Instrument type: EI-MS
m/z	relative intensity
15	35
18	11
27	29
28	27
29	14
30	18
39	24
41	38
42	120
43	52
44	230
56	91
57	34
70	51
71	37
72	999
73	50
86	61
87	232
88	14
