Mass spectrum: 2,2,3-TRIMETHOXY-6 OR 7-(1,1,2-TRIMETHYL-2-PROPENYL)CYCLOHEPTANE-1,5-DIONE; EI-MS
Formula: C16H26O5
Exact mass: 298.17802
Instrument type: EI-MS
m/z	relative intensity
39	44
41	99
43	41
47	72
53	89
55	483
57	57
58	59
59	154
67	118
69	70
75	236
79	51
81	50
83	106
84	106
85	82
88	85
91	40
95	65
101	432
103	52
117	67
118	51
131	41
137	50
156	50
165	57
174	207
187	999
188	96
189	15
215	17
270	12
298	17
