Mass spectrum: TEREPHTHALIC ACID; EI-MS
Formula: C8H6O4
Exact mass: 166.02661
Instrument type: EI-MS
m/z	relative intensity
37	18
38	29
39	61
44	11
45	74
49	13
50	125
51	84
52	18
53	25
63	18
65	261
66	20
73	22
74	105
75	89
76	91
77	57
78	10
93	37
103	29
104	36
105	29
120	12
121	280
122	29
138	23
148	11
149	999
150	90
166	918
167	85
168	11
