Mass spectrum: FENITROTHION; EI-MS
Name: O,O-DIMETHYL O-4-NITRO-M-TOLYL PHOSPHOROTHIOATE
Formula: C9H12NO5PS
Exact mass: 277.01738
Instrument type: EI-MS
m/z	relative intensity
47	28
62	16
77	11
79	94
80	16
91	11
93	104
96	18
109	758
110	27
120	37
121	42
122	21
123	20
124	15
125	718
126	23
127	57
136	40
137	11
150	48
151	17
152	35
153	15
169	18
199	11
214	46
216	10
228	13
230	15
231	37
232	11
246	23
247	19
260	346
261	46
262	26
277	999
278	112
279	61
