Mass spectrum: TRANS-2,3,4A,9A-TETRAHYDRO-4A,9A-DIMETHOXY-3',3',4'-TRIMETHYLSPIRO(CYCLOHEPTA(1,4)DIOXINE-7,2'-OXETANE; EI-MS
Formula: C16H24O5
Exact mass: 296.16237
Instrument type: EI-MS
m/z	relative intensity
39	218
41	370
42	147
43	240
45	97
51	88
53	129
54	115
55	446
59	364
65	105
70	331
75	253
76	126
78	97
84	113
91	166
95	150
103	999
104	96
105	132
111	181
113	186
123	312
133	99
139	145
150	121
165	99
167	221
168	29
175	21
177	24
179	34
180	19
181	23
183	32
187	19
189	27
190	27
192	20
195	170
196	22
199	19
205	22
211	38
221	32
222	23
226	33
227	340
228	42
233	84
234	20
237	19
265	60
296	87
297	20
