Mass spectrum: (Z)-3-METHYL-4-(1-METHOXYCYCLOHEXYL)-2-BUTENYLTRIMETHYLSILANE; EI-MS
Formula: C15H30OSi
Exact mass: 254.20659
Instrument type: EI-MS
m/z	relative intensity
45	33
71	10
73	58
81	159
82	12
89	71
113	999
114	107
142	10
254	2
