Mass spectrum: 4,4'-BIS(CHLOROMETHYLPHENYLSILYL)BIPHENYL; EI-MS
Formula: C26H24Cl2Si2
Exact mass: 462.07936
Instrument type: EI-MS
m/z	relative intensity
51	53
53	26
63	253
65	89
77	32
91	53
103	11
105	11
129	11
136	63
147	16
151	11
152	58
153	11
155	33
165	33
167	11
195	21
215	32
229	11
230	42
231	32
255	53
256	11
257	42
273	21
293	999
294	263
295	389
296	84
297	11
308	489
309	126
310	189
311	42
447	5
