Mass spectrum: 4-AMINOBENZONITRILE; EI-MS
Name: 4-CYANOANILINE
Formula: C7H6N2
Exact mass: 118.0531
Instrument type: EI-MS
m/z	relative intensity
28	25
37	16
38	28
39	57
40	17
41	29
50	17
51	23
52	44
61	11
62	26
63	84
64	101
65	48
66	15
67	11
75	17
76	16
77	12
78	11
89	11
90	87
91	254
92	25
117	51
118	999
119	91
