Mass spectrum: 4-FLUOROPHENOL; EI-MS
Name: PARA-FLUOROPHENOL
Formula: C6H5FO
Exact mass: 112.03244
Instrument type: EI-MS
m/z	relative intensity
26	15
27	14
28	19
29	31
31	53
37	30
38	42
39	55
49	15
50	44
51	29
53	41
55	18
56	59
57	224
58	37
61	44
62	57
63	128
64	186
65	28
68	15
69	12
73	29
74	21
75	26
81	59
82	32
83	422
84	329
85	17
86	12
94	13
95	11
111	27
112	999
113	63
