Mass spectrum: META-METHOXYBENZOIC ACID; EI-MS
Name: META-ANISIC ACID
Formula: C8H8O3
Exact mass: 152.04734
Instrument type: EI-MS
m/z	relative intensity
15	52
27	18
29	21
38	25
39	64
45	40
50	26
51	23
53	48
62	19
63	141
64	49
65	65
76	10
77	37
79	12
81	34
92	95
93	12
105	50
107	40
108	12
109	36
121	11
135	516
136	46
137	11
151	11
152	999
153	173
154	18
