Mass spectrum: ALPHA,ALPHA-DIMETHOXYTOLUENE; EI-MS
Formula: C9H12O2
Exact mass: 152.08373
Instrument type: EI-MS
m/z	relative intensity
15	76
27	12
29	74
30	19
31	23
39	33
47	30
50	46
51	116
52	29
59	33
62	10
63	26
65	22
74	20
75	120
76	15
77	338
78	55
89	23
90	12
91	148
92	15
93	12
105	119
106	17
121	999
122	92
151	12
152	33
