Mass spectrum: 3-AMINOPHENOL; EI-MS
Formula: C6H7NO
Exact mass: 109.05276
Instrument type: EI-MS
m/z	relative intensity
41	37
42	19
44	36
50	16
51	24
52	37
53	66
54	71
55	19
62	12
63	30
64	34
65	26
66	15
68	38
69	14
80	209
81	95
82	44
91	20
108	48
109	999
110	73
