Mass spectrum: BENZOTRIAZOLE; EI-MS
Name: 1,2,3-BENZOTRIAZOLE
Formula: C6H5N3
Exact mass: 119.04835
Instrument type: EI-MS
m/z	relative intensity
26	31
27	31
28	32
29	34
37	93
38	210
39	148
40	37
41	83
44	15
46	13
49	19
50	47
51	56
52	217
53	14
60	12
61	83
62	126
63	480
64	623
65	192
75	10
76	21
87	14
88	15
90	51
91	779
92	58
119	999
120	112
