Mass spectrum: 1,4-BIS(DIMETHYLSILYL)BUTANE; EI-MS
Formula: C8H22Si2
Exact mass: 174.126
Instrument type: EI-MS
m/z	relative intensity
28	14
29	23
31	88
41	14
43	130
44	32
45	86
55	19
57	30
58	81
59	999
60	67
61	35
71	51
72	63
73	97
74	14
85	37
86	164
87	280
88	29
97	37
98	23
99	319
100	34
101	14
112	10
113	34
114	100
115	60
116	30
117	13
144	90
145	16
157	30
159	74
160	12
173	58
174	44
175	16
