Mass spectrum: 2-PARA-TOLYLPERHYDROPYRROLO(3,4-C)PYRROLE-1,3-DIONE; EI-MS
Formula: C13H14N2O2
Exact mass: 230.10553
Instrument type: EI-MS
m/z	relative intensity
30	136
35	30
41	28
42	98
43	41
44	80
47	100
48	45
49	32
56	63
57	21
58	205
68	30
70	24
72	28
83	368
85	250
86	999
87	65
91	26
100	66
101	180
102	14
106	24
107	25
118	15
120	13
230	46
