Mass spectrum: TRANS-2,3,4A,9A-TETRAHYDRO-4A,9A-DIMETHOXY-1'-METHYLSPIRO(CYCLOHEPTA(1,4)DIOXINE-7,8'-7'-OXABICYCLO(4.2.0)OCTANE); EI-MS
Formula: C18H26O5
Exact mass: 322.17802
Instrument type: EI-MS
m/z	relative intensity
38	136
40	228
42	181
44	102
53	125
54	93
55	159
59	303
65	93
67	205
68	109
75	410
77	112
79	112
81	328
85	155
91	122
95	551
96	259
103	999
109	87
111	132
113	307
116	140
123	186
139	136
165	152
167	239
195	295
196	82
197	51
199	20
200	61
201	19
211	35
212	17
213	26
215	23
226	55
227	550
228	81
229	18
231	15
250	21
259	114
260	23
273	16
290	35
291	46
308	26
322	73
323	16
