Mass spectrum: 3-METHYL-1,5-PENTANEDIAMINE; EI-MS
Formula: C6H16N2
Exact mass: 116.13135
Instrument type: EI-MS
m/z	relative intensity
27	61
28	36
29	47
30	999
31	52
39	47
41	95
42	10
43	155
44	87
45	121
55	14
56	381
57	42
67	35
70	31
71	23
72	23
73	53
82	2
84	44
86	37
87	34
97	3
98	25
99	79
100	30
