Mass spectrum: 3,3'5,5'-TETRABROMO-2,2'-BITHIOPHENE; EI-MS
Formula: C8H2Br4S2
Exact mass: 477.63314
Instrument type: EI-MS
m/z	relative intensity
56	64
58	118
73	74
81	128
321	266
478	521
479	670
480	787
481	999
482	745
483	670
484	479
