Mass spectrum: 3-PHENANTHRYLMETHYL BENZOATE; EI-MS
Formula: C22H16O2
Exact mass: 312.11503
Instrument type: EI-MS
m/z	relative intensity
27	15
29	62
39	15
40	130
41	33
43	37
44	79
50	26
51	86
55	26
57	26
69	26
77	244
78	26
105	999
106	90
122	22
149	18
150	20
151	37
152	29
163	26
165	59
176	75
177	77
178	86
179	121
180	18
187	24
188	24
189	400
190	218
191	477
192	110
205	22
206	90
207	35
312	501
313	121
