Mass spectrum: 1,2-BIS(TRIMETHYLSILYL)ETHANE; EI-MS
Formula: C8H22Si2
Exact mass: 174.126
Instrument type: EI-MS
m/z	relative intensity
28	19
29	36
31	26
43	80
44	38
45	149
55	19
57	20
58	107
59	92
72	30
73	999
74	96
75	41
85	162
86	266
87	47
88	18
131	86
159	114
160	41
161	18
174	110
175	21
176	10
