Mass spectrum: (Z)-5-METHOXY-3,5-DIMETHYL-2-HEXENYLTRIMETHYLSILANE; EI-MS
Formula: C12H26OSi
Exact mass: 214.17529
Instrument type: EI-MS
m/z	relative intensity
31	7
39	7
41	21
42	1
43	32
44	9
45	52
53	6
55	12
57	6
59	29
67	9
72	9
73	999
74	73
75	15
89	85
90	7
91	5
95	31
111	5
142	6
214	5
