Mass spectrum: ANTHRAFLAVIC ACID; EI-MS
Name: 2,6-DIHYDROXYANTHRAQUINONE
Formula: C14H8O4
Exact mass: 240.04226
Instrument type: EI-MS
m/z	relative intensity
14	30
15	15
16	30
26	37
27	148
28	15
29	314
32	10
37	51
38	145
39	209
40	16
41	20
42	61
43	36
45	29
49	13
50	148
51	122
52	33
53	220
54	25
55	50
61	98
62	445
63	999
64	301
65	91
66	82
67	20
69	20
73	26
74	215
75	184
76	77
77	133
78	26
79	22
85	20
86	55
87	110
88	29
89	58
90	46
91	86
92	433
93	62
98	55
99	47
100	32
101	105
102	93
103	19
104	11
105	20
106	13
110	18
111	33
113	36
114	15
115	12
118	13
119	33
120	90
121	28
122	11
125	21
126	158
127	236
128	306
129	34
130	25
137	23
138	23
139	113
140	20
142	12
145	23
154	20
155	368
156	66
167	19
168	24
183	68
184	299
185	31
195	25
196	30
211	58
212	234
213	36
223	62
224	40
239	49
240	437
241	82
242	12
