Mass spectrum: 4-NITROBENZYL BROMIDE; EI-MS
Name: ALPHA-BROMO-4-NITROTOLUENE
Formula: C7H6BrNO2
Exact mass: 214.95819
Instrument type: EI-MS
m/z	relative intensity
30	166
38	23
39	57
40	11
50	37
51	52
52	19
61	14
62	47
63	128
64	50
77	18
78	299
79	18
86	12
87	11
89	227
90	255
91	19
106	159
107	12
120	15
136	999
137	82
169	11
215	80
216	10
217	78
