Mass spectrum: 1-DIETHYL(2-PHENYLETHYNYL)SILYL-2-DIETHYLSILYLBENZENE; EI-MS
Formula: C22H30Si2
Exact mass: 350.1886
Instrument type: EI-MS
m/z	relative intensity
105	32
118	11
207	11
235	53
236	11
237	117
238	32
263	149
266	32
267	11
293	351
294	106
295	32
321	999
322	404
323	133
324	27
