Mass spectrum: (E)-3-(2-OXOPROPYLENE)-1-PARA-TOLYL-2,5-PYRROLIDINEDIONE; EI-MS
Formula: C14H13NO3
Exact mass: 243.08954
Instrument type: EI-MS
m/z	relative intensity
39	190
43	739
51	53
65	48
67	150
75	84
76	54
79	63
86	93
96	57
98	81
99	377
101	162
126	48
133	99
135	111
143	226
156	58
172	140
173	197
200	76
201	289
202	64
215	70
243	999
244	165
