Mass spectrum: METHYL 2-CYANOETHANESULFONATE; EI-MS
Formula: C4H7NO3S
Exact mass: 149.01466
Instrument type: EI-MS
m/z	relative intensity
26	27
27	43
28	96
29	28
31	10
32	9
39	4
41	5
42	63
43	199
44	9
45	2
48	14
51	11
52	35
53	75
54	272
55	11
63	9
64	11
65	38
68	4
70	84
78	3
79	999
80	45
81	56
94	17
96	10
97	25
106	34
123	4
134	147
135	4
136	4
