Mass spectrum: 4-(2-FLUOROBENZOYL)-3-PHENYL-5-ISOXAZOLONE; EI-MS
Formula: C16H10FNO3
Exact mass: 283.06447
Instrument type: EI-MS
m/z	relative intensity
39	11
50	15
51	26
63	18
75	45
76	24
77	25
89	25
94	11
95	144
102	50
103	26
116	28
123	999
124	212
283	10
