Mass spectrum: 1-METHYL-SILACYCLOHEXANE (2,2,6,6-D4); EI-MS
Formula: C6H14Si
Exact mass: 114.08648
Instrument type: EI-MS
m/z	relative intensity
45	23
46	14
58	127
59	65
60	162
61	57
62	17
71	14
72	31
73	92
74	256
75	66
76	19
86	32
87	143
88	999
89	156
90	115
91	13
100	17
101	47
102	31
103	205
104	26
116	72
117	252
118	667
119	99
120	25
