Mass spectrum: N-(3-TRIFLUOROMETHYLBENZYLIDENE)METHYLAMINE; EI-MS
Formula: C9H8F3N
Exact mass: 187.06088
Instrument type: EI-MS
m/z	relative intensity
33	16
37	20
38	81
39	162
40	67
41	295
42	703
43	57
49	11
50	220
51	185
52	30
57	57
61	27
62	98
63	180
64	32
65	23
66	14
68	11
69	569
70	18
74	86
75	239
76	103
77	65
80	10
81	33
83	19
86	29
87	52
88	42
89	139
90	58
91	70
93	11
94	19
95	122
96	51
99	58
100	27
101	21
102	36
107	73
108	30
109	122
110	12
112	10
114	13
116	30
117	82
118	228
119	87
120	12
121	50
125	123
126	74
127	48
132	13
137	14
138	38
139	18
143	10
144	13
145	378
146	79
152	89
153	12
155	10
157	13
158	30
159	210
160	20
166	35
167	15
168	220
169	26
170	30
171	50
172	19
173	36
174	28
185	36
186	999
187	955
188	197
