Mass spectrum: 2,5-DIMETHYLPHENOL; EI-MS
Formula: C8H10O
Exact mass: 122.07316
Instrument type: EI-MS
m/z	relative intensity
41	28
43	20
44	48
45	12
46	12
50	30
51	80
52	28
53	44
55	16
59	13
60	38
61	30
62	12
63	24
65	44
66	11
77	170
78	59
79	91
80	11
91	99
92	15
93	27
94	16
103	53
104	61
105	33
107	681
108	54
121	405
122	999
123	85
