Mass spectrum: 4'-BROMOACETOPHENONE; EI-MS
Formula: C8H7BrO
Exact mass: 197.96803
Instrument type: EI-MS
m/z	relative intensity
13	83
14	386
25	34
26	41
28	53
37	46
38	93
39	48
41	31
42	209
43	999
44	18
49	33
50	348
51	93
52	93
53	13
61	34
63	89
64	14
65	11
73	38
74	187
75	261
76	276
77	56
79	67
80	15
81	69
82	16
86	14
87	10
89	57
90	29
91	29
104	76
155	206
156	16
157	199
158	13
183	495
184	40
185	488
186	40
198	119
199	20
200	124
201	19
