Mass spectrum: (13R)-13-METHOXYLABDA-7,14-DIENE; EI-MS
Formula: C21H36O
Exact mass: 304.27662
Instrument type: EI-MS
m/z	relative intensity
40	10
41	269
42	22
43	14
45	27
53	70
54	13
55	38
56	27
57	32
59	18
65	2
66	11
67	136
68	38
69	21
70	16
71	17
72	13
77	5
78	16
79	120
80	225
81	24
82	37
83	49
84	11
85	51
86	37
87	18
91	120
92	4
93	213
94	57
95	203
96	3
97	37
98	30
99	32
103	1
105	127
106	56
107	158
108	15
109	282
110	27
111	23
115	1
117	22
119	164
120	84
121	14
122	113
123	69
124	36
125	1
131	22
132	11
133	131
134	7
135	134
136	51
137	44
145	2
147	65
148	115
149	53
151	1
159	14
161	160
162	39
163	4
164	11
173	13
175	34
176	2
177	27
187	203
188	10
189	13
190	35
191	98
192	33
201	1
203	16
204	999
205	188
206	1
220	10
257	65
258	14
272	3
273	12
275	15
304	11
