Mass spectrum: 2,5-HEXADIONE; EI-MS
Formula: C6H10O2
Exact mass: 114.06808
Instrument type: EI-MS
m/z	relative intensity
39	17
41	14
42	35
43	999
44	27
53	13
55	15
57	81
71	186
72	40
99	422
100	25
114	164
115	12
