Mass spectrum: BENZYL 2-METHYLBENZOATE; EI-MS
Formula: C15H14O2
Exact mass: 226.09938
Instrument type: EI-MS
m/z	relative intensity
27	20
28	45
29	12
38	12
39	107
41	32
45	31
50	33
51	97
52	24
53	13
62	15
63	76
64	23
65	333
66	21
74	12
75	10
76	14
77	159
78	29
79	83
89	111
90	136
91	999
92	153
105	92
107	48
108	21
118	111
119	626
120	60
122	63
135	101
136	74
148	15
165	12
167	23
181	30
208	494
209	83
211	16
226	263
227	44
