Mass spectrum: 2,5-BIS(TRIMETHYLSILYLETHYNYL)ANILINE; EI-MS
Formula: C16H23NSi2
Exact mass: 285.1369
Instrument type: EI-MS
m/z	relative intensity
53	121
54	21
55	58
56	32
57	42
58	232
59	142
60	21
67	32
69	16
70	79
71	11
73	999
74	142
75	63
77	21
83	37
84	11
85	121
97	21
100	21
101	21
106	11
113	21
114	32
120	21
128	142
270	550
271	142
272	42
285	410
286	116
287	32
