Mass spectrum: 1,4-BIS(PENTAMETYLDISILANYL)BENZENE; EI-MS
Formula: C16H34Si4
Exact mass: 338.17376
Instrument type: EI-MS
m/z	relative intensity
73	183
74	15
116	999
117	140
118	73
131	65
132	10
177	182
178	36
179	15
191	22
192	32
207	266
208	58
209	23
235	19
250	20
265	141
266	42
267	19
323	22
338	141
339	54
340	28
