Mass spectrum: DIISOBUTYLMETHYLSILANE (D); EI-MS
Formula: C9H22Si
Exact mass: 158.14908
Instrument type: EI-MS
m/z	relative intensity
39	81
40	27
41	151
42	40
43	173
44	94
45	119
46	299
55	43
56	43
57	40
58	97
59	999
60	782
61	97
62	40
71	38
72	97
73	313
74	135
75	40
85	59
86	54
87	27
88	164
99	27
100	167
101	108
102	623
103	67
104	30
135	24
144	226
145	51
146	24
156	135
157	40
158	27
159	40
160	24
