Mass spectrum: SELIN-11-EN-4ALPHA-OL; EI-MS
Formula: C15H26O
Exact mass: 222.19837
Instrument type: EI-MS
m/z	relative intensity
41	200
42	80
43	360
44	6
45	80
51	60
52	40
53	37
54	70
55	130
56	60
57	9
58	180
59	350
65	150
66	7
67	610
68	280
69	410
70	6
71	830
72	60
77	260
78	8
79	160
80	130
81	999
82	29
83	170
84	70
85	170
86	3
91	350
92	100
93	200
94	21
95	230
96	290
97	130
98	5
99	30
103	40
104	30
105	32
106	110
107	420
108	260
109	21
110	100
111	80
113	50
115	3
117	50
118	70
119	180
120	8
121	380
122	250
123	360
124	6
125	100
126	40
131	50
133	24
134	200
135	780
136	200
137	45
138	70
139	30
145	40
146	3
142	215
148	160
149	240
150	5
151	50
152	30
161	410
162	19
163	60
164	230
165	60
175	10
176	40
179	130
180	30
189	40
190	70
204	825
205	370
206	6
207	120
208	30
222	299
223	70
