Mass spectrum: (L)-3-PHENYLLACETIC ACID; EI-MS
Name: (L)-2-HYDROXY-3-PHENYLPROPIONIC ACID
Formula: C9H10O3
Exact mass: 166.06299
Instrument type: EI-MS
m/z	relative intensity
43	30
45	10
55	10
56	1
57	19
58	10
60	14
65	3
69	16
70	10
71	13
77	2
78	10
79	13
91	999
92	10
113	65
121	60
147	32
148	24
149	33
166	30
