Mass spectrum: 1,1,1,3,3,3-(HEXAMETHYL)-2-(TRIMETHYLSILYLMETHYL)TRISILANE; EI-MS
Formula: C10H30Si4
Exact mass: 262.14246
Instrument type: EI-MS
m/z	relative intensity
57	8
59	19
73	134
78	43
99	15
100	7
113	22
114	56
115	43
116	12
117	7
129	169
130	29
131	37
145	24
159	32
171	18
173	999
174	223
175	121
176	19
187	30
188	529
189	137
190	70
191	12
247	34
248	10
262	26
263	7
