Mass spectrum: 4-METHOXYPHENOL; EI-MS
Formula: C7H8O2
Exact mass: 124.05243
Instrument type: EI-MS
m/z	relative intensity
42	21
50	26
51	35
52	42
53	126
54	44
55	30
61	12
62	28
63	37
64	15
65	47
66	10
80	14
81	326
82	23
93	19
95	18
108	17
109	999
110	67
123	24
124	1000
125	80
