Mass spectrum: (DIMETHYLPHENYLSILYL)PHENYLACETYLENE; EI-MS
Formula: C16H16Si
Exact mass: 236.10213
Instrument type: EI-MS
m/z	relative intensity
52	11
53	42
54	189
55	11
56	21
65	11
67	11
77	32
79	11
91	11
93	32
103	32
105	95
111	11
119	21
129	53
221	999
222	211
223	42
236	263
237	63
