Mass spectrum: EICOSANO1C ACID; EI-MS
Formula: C20H40O2
Exact mass: 312.30283
Instrument type: EI-MS
m/z	relative intensity
27	93
39	71
41	677
42	125
43	999
45	66
53	40
54	55
55	665
56	124
57	810
58	12
59	22
60	798
61	215
67	78
68	63
69	286
70	86
71	290
72	29
73	870
74	67
79	19
81	62
82	58
83	223
84	98
85	195
87	143
88	21
95	43
96	43
97	173
98	107
99	63
101	66
102	24
109	17
110	18
112	34
113	39
115	91
116	51
125	46
126	12
127	21
129	245
130	27
139	18
141	12
143	28
157	33
171	51
185	66
199	13
213	57
227	41
241	18
255	12
269	94
270	17
283	15
