Mass spectrum: DIBUTYLAMINE; EI-MS
Formula: C8H19N
Exact mass: 129.15175
Instrument type: EI-MS
m/z	relative intensity
30	47
44	248
57	19
72	12
86	999
87	61
114	14
128	17
129	263
130	27
