Mass spectrum: 4,7-DI(PARA-ETHOXYPHENYL)-6-(PYRIDIN-4-YL)-1,2,5-THIADIAZOLO(3,4-C)PYRIDINE; EI-MS
Formula: C26H22N4O2S
Exact mass: 454.14635
Instrument type: EI-MS
m/z	relative intensity
199	105
396	126
424	184
452	149
453	999
454	306
455	88
