Mass spectrum: QUININE; EI-MS
Formula: C20H24N2O2
Exact mass: 324.18378
Instrument type: EI-MS
m/z	relative intensity
17	16
18	55
27	15
28	22
29	15
39	25
41	65
42	62
43	11
44	10
53	34
54	19
55	54
56	21
63	12
65	11
67	22
68	14
69	10
77	25
79	42
80	19
81	78
82	33
89	23
90	17
91	13
94	17
95	28
108	13
115	12
116	39
117	57
128	13
129	15
130	13
136	999
137	106
138	24
145	33
154	11
158	31
159	27
160	32
172	30
173	23
174	25
184	10
187	22
188	26
189	63
324	17
326	14
