Mass spectrum: (Z)-3-METHYL-5-OXO-5-PHENYL-2-PENTENYLTRIMETHYLSILANE; EI-MS
Formula: C15H22OSi
Exact mass: 246.14399
Instrument type: EI-MS
m/z	relative intensity
39	17
41	17
43	23
44	13
45	109
51	34
59	47
73	999
74	93
75	198
76	20
77	129
78	16
83	18
91	25
104	21
105	327
106	30
115	31
127	13
128	18
129	45
135	28
141	96
142	41
156	47
157	61
163	17
177	23
178	22
231	166
232	4
245	52
246	56
