Mass spectrum: ANTI-13-TERT-BUTYL-16-METHOXY-4,5,6,8-TETRAFLUORO(2.2)METACYCLOPHANE; EI-MS
Formula: C21H22F4O
Exact mass: 366.16068
Instrument type: EI-MS
m/z	relative intensity
30	21
41	72
57	111
76	23
91	43
115	29
117	25
128	19
129	21
176	38
177	23
183	31
238	21
256	25
257	25
259	25
271	19
301	32
305	32
333	60
335	44
348	42
351	999
352	225
353	27
366	533
367	124
