Mass spectrum: ACETAMIDOTHIAZOLE; EI-MS
Formula: C5H6N2OS
Exact mass: 142.02008
Instrument type: EI-MS
m/z	relative intensity
15	37
28	35
40	10
42	25
43	387
45	87
46	22
55	74
57	27
58	164
59	15
60	10
71	11
73	112
99	11
100	999
101	55
102	48
142	293
143	55
144	16
