Mass spectrum: 2-BROMOACETOPHENONE; EI-MS
Formula: C8H7BrO
Exact mass: 197.96803
Instrument type: EI-MS
m/z	relative intensity
38	24
39	22
43	169
50	143
51	54
63	31
74	88
75	164
76	183
77	80
89	26
91	21
104	33
105	29
155	314
156	33
157	303
158	34
183	999
184	77
185	976
186	81
198	303
199	27
200	288
201	29
