Mass spectrum: BENZOTHIAZOLE; EI-MS
Formula: C7H5NS
Exact mass: 135.01427
Instrument type: EI-MS
m/z	relative intensity
39	15
45	23
58	35
63	34
64	12
69	126
82	78
84	14
91	56
107	12
108	303
109	31
110	13
134	14
135	999
136	90
137	49
