Mass spectrum: 2,4-DIFLUOROTOLUENE; EI-MS
Formula: C7H6F2
Exact mass: 128.04376
Instrument type: EI-MS
m/z	relative intensity
26	17
27	20
31	66
33	11
37	19
38	28
39	41
43	10
44	23
49	12
50	68
51	80
54	19
56	24
57	91
61	29
62	36
63	58
64	22
68	17
69	14
70	11
74	30
75	75
76	15
77	33
78	12
80	16
81	62
82	10
83	27
85	11
86	11
99	15
101	109
105	11
107	73
108	16
109	52
125	39
126	39
127	999
128	524
129	37
