Mass spectrum: DIMETHYL 2,5-DICHLORO-4-METHOXYCARBONYL PHENYLAMINOMETHYLPHOPHONATE; EI-MS
Formula: C11H14Cl2NO5P
Exact mass: 340.99866
Instrument type: EI-MS
m/z	relative intensity
28	67
32	74
62	94
63	149
73	156
74	139
75	93
97	135
99	113
100	110
109	154
124	243
125	130
126	103
136	147
137	111
138	115
153	140
160	324
161	121
162	211
163	137
169	20
172	165
174	101
188	862
189	77
190	569
192	93
200	999
201	99
202	663
203	112
204	112
219	806
220	72
221	494
223	74
231	874
232	122
233	559
234	55
235	95
