Mass spectrum: PHENYL TRIFLUOROACETATE; EI-MS
Name: TRIFLUOROACETIC ACID PHENYL ESTER
Formula: C8H5F3O2
Exact mass: 190.02416
Instrument type: EI-MS
m/z	relative intensity
26	23
27	28
29	17
31	33
37	52
38	145
39	547
40	38
45	46
49	18
50	200
51	212
52	12
53	20
55	13
61	31
62	66
63	157
64	70
65	999
66	96
69	593
70	15
73	11
74	43
75	26
76	23
77	383
78	34
84	16
92	17
93	208
94	106
95	17
96	122
97	26
114	18
115	10
121	45
143	46
162	204
163	16
190	522
191	48
