Mass spectrum: 2,2,5-TRIMETHYLCYCLOPENTANONE; EI-MS
Formula: C8H14O
Exact mass: 126.10447
Instrument type: EI-MS
m/z	relative intensity
41	92
42	40
43	40
55	73
56	999
57	186
68	35
69	157
70	87
71	56
72	40
82	38
83	50
84	41
93	62
108	62
111	76
126	273
127	32
