Mass spectrum: METHYL LACTATE; EI-MS
Formula: C4H8O3
Exact mass: 104.04734
Instrument type: EI-MS
m/z	relative intensity
15	72
26	12
27	70
28	1
29	78
30	14
31	20
33	17
42	12
43	90
44	20
45	999
46	22
59	25
61	33
89	1
104	4
