Mass spectrum: 2'-ACETONAPHTHONE; EI-MS
Formula: C12H10O
Exact mass: 170.07316
Instrument type: EI-MS
m/z	relative intensity
43	84
50	34
51	52
57	14
62	20
63	113
64	17
71	13
74	38
75	60
76	34
77	98
78	53
87	17
98	11
99	10
101	56
102	11
115	19
126	116
127	842
128	113
139	14
141	12
155	999
156	123
170	562
171	78
