Mass spectrum: 3,7,11-TRIMETHYL-(2,6Z,10Z)-DODECATRIENE-1-CARBOXYLIC ACID ETHYL ESTER; EI-MS
Formula: C17H28O2
Exact mass: 264.20893
Instrument type: EI-MS
m/z	relative intensity
27	60
28	20
29	80
39	8
41	500
42	30
43	100
53	10
54	40
55	110
57	30
65	2
67	130
68	80
69	999
70	6
71	20
77	50
79	60
80	3
81	480
82	210
83	90
85	4
91	70
93	130
94	20
95	15
96	20
97	20
99	20
100	17
101	20
105	50
107	80
108	3
109	350
110	40
111	60
113	7
119	20
120	20
121	380
122	7
123	130
124	20
125	20
128	48
129	40
135	50
136	70
137	19
138	20
139	60
141	60
142	6
147	130
148	40
149	320
150	6
151	80
153	30
161	20
163	2
175	60
176	30
190	30
191	5
195	20
218	20
219	30
221	16
222	20
264	130
