Mass spectrum: SILACYCLOBUTANE (1,1-D2); EI-MS
Formula: C3H8Si
Exact mass: 72.03953
Instrument type: EI-MS
m/z	relative intensity
28	227
29	31
30	24
31	13
32	20
33	21
39	17
40	12
41	33
42	35
43	86
44	461
45	818
46	884
47	113
48	35
55	38
56	42
57	50
58	88
59	67
69	16
70	90
71	110
72	221
73	219
74	999
75	104
76	42
