Mass spectrum: 2,2-DIMETHYLCYCLOPENTANONE; EI-MS
Formula: C7H12O
Exact mass: 112.08882
Instrument type: EI-MS
m/z	relative intensity
27	130
28	86
29	64
39	176
40	56
41	390
42	82
43	42
53	39
54	24
55	129
56	999
57	63
67	30
68	78
69	97
70	35
79	59
83	24
84	33
94	82
97	76
112	218
113	24
