Mass spectrum: 4-METHOXY-6-METHYL-3-(TRIMETHYLSILYL)METHYL-1-HEPTENE; EI-MS
Formula: C13H28OSi
Exact mass: 228.19094
Instrument type: EI-MS
m/z	relative intensity
31	25
33	30
39	34
41	132
42	12
43	238
44	34
45	561
46	19
53	19
54	12
55	35
57	17
58	52
59	491
60	24
67	94
68	15
69	688
70	51
71	136
72	20
73	493
74	47
75	42
81	17
82	12
85	33
89	313
90	29
91	15
95	11
97	33
101	999
102	86
103	16
127	13
