Mass spectrum: 3-CHLOROTHIOPHENYL TRICHLOROMETHYL ETHER; EI-MS
Name: 3-CHLORO-1-TRICHLOROMETHYLTIOBENZENE
Formula: C7H4Cl4S
Exact mass: 259.87878
Instrument type: EI-MS
m/z	relative intensity
37	10
38	10
39	10
45	2
50	100
51	40
61	20
62	2
63	80
69	100
73	60
74	7
75	220
76	40
79	170
81	8
82	50
84	10
85	20
93	1
95	5
99	70
101	20
107	2
108	380
109	30
111	180
113	6
117	320
119	300
121	100
143	18
144	10
145	70
146	5
155	13
157	40
189	70
190	40
191	6
192	30
193	20
225	970
226	7
227	999
228	70
229	350
230	2
231	40
260	340
262	450
264	23
266	50
