Mass spectrum: 1-BENZYL-3,4-BIS(METHOXYCARBONYL)-2-PHENYL-3-PYRROLINE; EI-MS
Formula: C21H21NO4
Exact mass: 351.14706
Instrument type: EI-MS
m/z	relative intensity
51	19
53	11
59	19
63	17
65	97
77	21
89	19
91	999
92	85
105	10
114	10
115	20
128	11
196	11
197	10
228	14
229	14
231	20
242	25
243	24
26	51
261	54
262	11
274	33
292	84
293	89
294	22
317	10
318	73
319	80
320	22
321	12
349	140
350	144
351	40
352	21
