Mass spectrum: HEXYL PIVALATE; EI-MS
Formula: C11H22O2
Exact mass: 186.16198
Instrument type: EI-MS
m/z	relative intensity
27	75
29	166
39	75
41	329
42	91
43	321
55	85
56	209
57	999
58	47
59	35
69	45
70	15
71	12
83	13
84	155
85	197
86	11
87	24
103	410
104	21
