Mass spectrum: 1-(2-HYDROXY-4-PHENYLMETHOXYPHENYL)ETHANONE; EI-MS
Name: 4'-BENZYLOXY-2'-HYDROXYACETOPHENONE
Formula: C15H14O3
Exact mass: 242.09429
Instrument type: EI-MS
m/z	relative intensity
43	11
65	26
91	999
92	78
227	14
242	228
243	40
244	5
