Mass spectrum: 2,4-DICHLORO-1-(BENZENESULFONYLMETHOXY)-5-(1-PYRROLIDINCARBONYLOXY)-BENZENE; EI-MS
Name: 2,4-DICHLORO-5-(1-PYRROLIDINCARBOXY)-PHENOXYMETHYL PHENYL SULFONE
Formula: C18H17Cl2NO5S
Exact mass: 429.02045
Instrument type: EI-MS
m/z	relative intensity
30	22
55	205
56	66
70	13
77	21
97	23
98	999
99	85
125	58
394	15
429	31
431	23
