Mass spectrum: 6-ISOPROPYL-4-METHOXYCARBONYL-2-(PARA-TOLYL)PERHYDROPYRROLO(3,4-C)PYRROLE-1,3-DIONE(SYN-ENDO); EI-MS
Name: (4S,6S)-6-ISOPROPYL-4-METHOXYCARBONYL-2-(PARA-TOLYL)PERHYDROPYRROLO(3,4-C)PYRROLE-1,3-DIONE
Formula: C12H18N2O4
Exact mass: 254.12666
Instrument type: EI-MS
m/z	relative intensity
38	277
40	357
41	122
42	174
55	130
56	78
58	84
59	137
66	69
67	364
68	324
69	78
80	90
81	53
82	105
83	96
93	103
94	603
95	75
109	57
110	312
111	53
126	82
143	64
151	555
152	79
153	51
179	320
180	30
183	14
193	47
195	448
196	57
197	18
211	999
212	142
213	28
254	34
255	28
