Mass spectrum: (E)-(2R,3S)-2-((1'S)-1'-TERT-BUTYLDIMETHYLSILOXYETHYL)-3-(N-BENZYL-TERT-BUTYLOXYCABONYLAMINO)-5-PHENYL-4-PENTENAL; EI-MS
Formula: C31H45NO4Si
Exact mass: 523.31179
Instrument type: EI-MS
m/z	relative intensity
344	18
366	62
367	12
39	22
391	33
405	304
406	103
407	28
410	999
411	340
412	114
413	24
423	32
450	38
452	45
456	28
467	43
523	196
524	84
525	22
