Mass spectrum: ISOPENTYL LAURATE; EI-MS
Formula: C17H34O2
Exact mass: 270.25588
Instrument type: EI-MS
m/z	relative intensity
27	37
28	14
29	84
39	2
41	133
42	58
43	366
44	1
54	12
55	149
56	26
57	10
60	28
61	16
67	12
69	5
70	999
71	350
72	16
73	4
83	21
84	16
85	28
87	1
95	14
97	16
98	14
101	1
115	19
129	14
130	14
143	1
157	12
183	70
200	28
201	4
270	19
