Mass spectrum: TERT-BUTYL(3-METHYL-2-BUTENYL)AMINE; EI-MS
Formula: C9H19N
Exact mass: 141.15175
Instrument type: EI-MS
m/z	relative intensity
27	34
28	114
29	52
30	5
32	18
39	52
41	241
42	7
43	23
53	27
55	18
56	2
57	80
58	999
59	41
67	3
68	27
69	338
70	145
71	1
82	12
84	97
85	10
110	1
126	414
127	34
141	112
142	12
