Mass spectrum: METHYL 2,2-DIMETHOXYPROPIONATE; EI-MS
Formula: C6H12O4
Exact mass: 148.07356
Instrument type: EI-MS
m/z	relative intensity
27	11
28	14
29	24
31	14
42	17
43	732
44	16
45	4
47	117
55	4
57	189
58	23
59	36
75	106
85	155
86	5
87	24
89	999
90	49
91	3
117	446
118	25
133	28
