Mass spectrum: 1-CHLORO-5-ETHOXY-3-METHYL-1,3-PENTADIENE; EI-MS
Formula: C8H13ClO
Exact mass: 160.06549
Instrument type: EI-MS
m/z	relative intensity
27	93
28	9
29	45
39	55
41	29
43	127
45	999
51	55
53	87
55	8
65	59
73	77
75	30
77	96
79	127
80	40
81	694
82	30
89	50
91	34
115	44
116	453
117	49
118	156
