Mass spectrum: 1,1-DIMETHYLSILACYCLOBUTANE; EI-MS
Formula: C5H12Si
Exact mass: 100.07083
Instrument type: EI-MS
m/z	relative intensity
43	59
44	202
45	28
46	14
57	29
58	26
59	116
60	14
70	40
71	41
72	999
73	97
74	41
85	72
100	211
101	29
102	10
