Mass spectrum: METHYL ALPHA-D-RIBOFURANOSIDE; EI-MS
Formula: C6H12O5
Exact mass: 164.06847
Instrument type: EI-MS
m/z	relative intensity
27	63
30	24
33	92
39	20
40	40
41	48
42	49
43	162
44	76
45	307
47	13
54	23
55	90
56	58
57	427
58	116
59	52
60	141
61	244
68	89
69	40
71	92
72	38
73	999
74	134
75	141
85	95
86	172
87	107
88	22
101	18
103	20
104	66
105	22
115	25
117	19
133	180
