Mass spectrum: 1,1-DIMETHYLSILACYCLOBUTANE; EI-MS
Formula: C5H12Si
Exact mass: 100.07083
Instrument type: EI-MS
m/z	relative intensity
27	27
28	38
29	95
31	51
39	28
41	12
42	66
43	298
44	339
45	70
46	17
53	42
54	16
55	51
56	21
57	55
58	44
59	162
60	16
66	15
67	20
70	55
71	66
72	999
73	97
74	44
85	76
100	180
101	21
102	11
