Mass spectrum: DIMETHYL 5,18,19-TRIOXO-5,6,7,8,15,16,17,18-OCTAHYDRO-7,16-METHANODINAPHTO(2,3-A:2',3'-F)CYCLODECENE-7,16-DICARBOXYLATE; EI-MS
Formula: C31H24O7
Exact mass: 508.1522
Instrument type: EI-MS
m/z	relative intensity
77	116
78	330
151	135
152	145
153	174
154	300
155	363
165	334
164	155
176	235
177	250
178	394
179	184
180	164
181	106
193	87
194	130
205	130
207	77
234	106
233	615
264	126
265	999
266	193
291	53
292	302
293	63
324	540
325	106
359	92
360	126
415	106
416	140
476	144
477	87
508	798
509	280
510	97
