Mass spectrum: ETHYL RICINOLEATE; EI-MS
Formula: C20H38O3
Exact mass: 326.2821
Instrument type: EI-MS
m/z	relative intensity
27	97
29	291
31	31
39	54
41	384
42	54
43	356
44	30
45	53
53	41
54	173
55	999
56	76
57	120
58	11
59	16
60	53
61	41
65	12
66	12
67	217
68	137
69	349
70	78
71	52
73	68
77	13
79	49
80	30
81	199
82	193
83	214
84	324
85	46
87	20
88	350
89	29
91	14
93	30
94	37
95	117
96	295
97	319
98	246
99	23
101	205
102	19
107	16
108	17
109	51
110	65
111	57
112	16
113	23
114	10
115	59
116	11
119	24
121	19
122	49
123	117
124	278
125	60
127	15
128	21
129	25
130	10
133	12
139	10
141	15
142	20
143	14
147	15
148	38
149	13
150	11
151	17
155	28
157	11
165	15
166	302
167	37
169	15
183	11
195	22
212	69
213	13
263	11
