Mass spectrum: 2-ACETOXYETHYL-2,8-DIMETHYL-6-HEXYL-8-(2-HYDROXYETHYL)-3,4,9,10-TETRAHYDRO-2H,8H-BENZO(1,2-B:3,4-B')DIPYRAN; EI-MS
Formula: C26H40O5
Exact mass: 432.28757
Instrument type: EI-MS
m/z	relative intensity
27	25
28	112
29	73
32	125
39	17
41	209
43	364
53	38
55	191
57	63
65	31
67	51
69	184
71	21
77	59
79	183
81	175
83	96
85	99
91	112
93	63
95	54
97	161
98	31
99	56
103	13
105	82
107	48
109	26
115	38
117	33
119	48
121	57
123	42
128	30
129	35
131	43
133	52
135	65
137	50
141	16
142	17
143	24
145	40
147	80
149	80
150	14
151	25
157	17
159	47
161	117
162	14
163	60
165	13
169	17
171	26
173	66
175	171
176	52
177	55
185	20
187	110
188	68
189	172
190	52
191	47
193	14
197	14
199	25
201	76
203	186
204	27
205	121
207	294
208	47
213	23
215	175
216	38
217	51
219	249
220	21
221	98
222	14
227	22
229	44
231	62
232	13
233	184
234	67
235	32
241	18
243	59
245	86
247	96
248	17
255	23
257	73
258	50
259	332
260	75
261	94
262	20
269	25
271	130
272	19
273	113
274	50
275	61
276	16
277	13
283	26
285	32
287	193
288	38
289	175
290	39
292	154
293	38
299	29
301	89
302	20
303	82
304	21
305	150
306	37
313	15
315	13
317	34
319	312
320	66
327	33
329	17
331	18
332	16
343	82
344	33
345	89
346	29
347	180
348	48
357	36
361	145
362	32
372	29
373	21
375	231
376	55
390	999
391	268
392	38
430	14
432	469
433	132
434	23
