Mass spectrum: 2,5-DICHLOROPHENYLTHIOGLYCOLIC ACID; EI-MS
Formula: C8H6Cl2O2S
Exact mass: 235.94656
Instrument type: EI-MS
m/z	relative intensity
144	14
191	40
193	28
201	60
203	22
236	999
237	98
238	704
239	68
240	132
241	13
