Mass spectrum: 2-CHLOROBENZOIC ACID; EI-MS
Formula: C7H5ClO2
Exact mass: 155.99781
Instrument type: EI-MS
m/z	relative intensity
44	19
45	27
46	11
49	27
50	168
51	92
53	11
55	19
61	19
62	12
63	27
64	28
65	35
70	40
73	26
74	84
75	213
76	142
77	83
78	22
84	16
85	30
87	11
110	12
111	350
112	34
113	115
114	11
121	12
128	26
139	999
140	77
141	320
142	28
156	731
157	57
158	239
159	21
