Mass spectrum: 2,3,4,5-TETRAMETHYLACETANILIDE; EI-MS
Formula: C12H17NO
Exact mass: 191.13101
Instrument type: EI-MS
m/z	relative intensity
43	48
79	10
91	31
105	28
117	16
119	12
120	12
121	10
132	30
133	27
134	452
135	64
146	10
147	16
148	299
149	940
150	129
160	11
175	10
176	33
191	999
192	173
193	17
