Mass spectrum: 4-METHYLBENZYL SALICYLATE; EI-MS
Formula: C15H14O3
Exact mass: 242.09429
Instrument type: EI-MS
m/z	relative intensity
27	15
39	53
51	15
53	13
63	22
64	13
65	59
77	75
78	28
79	56
91	17
92	19
93	15
103	39
104	28
105	999
106	93
121	28
242	43
