Mass spectrum: 2-ACETOXY-5,7-DIBROMO-4-ISOPROPYLTROPONE; EI-MS
Formula: C12H12Br2O3
Exact mass: 361.91532
Instrument type: EI-MS
m/z	relative intensity
39	123
41	105
43	999
50	45
51	89
53	45
62	116
63	178
65	48
75	47
77	139
78	53
79	71
89	128
90	95
91	72
103	86
104	44
105	132
118	58
133	50
134	45
143	52
162	50
198	85
200	79
277	200
279	375
281	174
292	65
294	110
296	55
320	279
321	33
322	489
323	59
324	247
325	30
362	25
364	50
365	14
366	26
