Mass spectrum: 1,1,2-TRIS(PHENYLTHIO)ETANE; EI-MS
Formula: C20H18S3
Exact mass: 354.05706
Instrument type: EI-MS
m/z	relative intensity
45	168
55	60
91	130
98	112
122	76
123	999
135	148
245	563
354	109
