Mass spectrum: TRANS-2,3,4A,9A-TETRAHYDRO-4A,9A,3'-TRIMETHOXY-3'-METHYLSPIRO(CYCLOHEPTA(1,4)DIOXINE-7,2'-OXETANE); EI-MS
Formula: C15H22O6
Exact mass: 298.14164
Instrument type: EI-MS
m/z	relative intensity
39	199
41	274
42	620
43	514
52	126
54	117
55	118
59	311
65	115
72	999
77	147
80	128
85	157
91	164
95	234
103	685
111	165
113	216
123	305
135	139
136	129
165	204
167	137
191	129
195	137
196	23
203	32
205	40
207	19
209	23
211	33
221	31
224	17
226	51
227	37
235	150
236	30
237	26
253	18
266	22
267	73
268	23
298	60
299	16
