Mass spectrum: 3-METHOXYBENZOIC ACID METHYL ESTER; EI-MS
Formula: C9H10O3
Exact mass: 166.06299
Instrument type: EI-MS
m/z	relative intensity
28	30
77	96
78	12
79	10
92	50
107	163
108	33
120	11
135	849
136	91
165	11
166	999
167	100
168	14
