Mass spectrum: 2-METHYLBENZOTHIAZOLE; EI-MS
Formula: C8H7NS
Exact mass: 149.02992
Instrument type: EI-MS
m/z	relative intensity
39	13
45	16
58	27
63	21
65	14
69	97
82	57
104	33
107	11
108	238
109	61
110	14
116	15
117	38
121	41
122	14
148	173
149	999
150	104
151	50
