Mass spectrum: 2-PHENYLPHENYL ACETATE; EI-MS
Formula: C14H12O2
Exact mass: 212.08373
Instrument type: EI-MS
m/z	relative intensity
15	16
39	23
43	154
51	16
62	11
63	28
65	10
75	13
76	12
87	11
89	18
102	14
113	11
115	161
116	17
139	74
140	15
141	150
142	53
152	17
168	39
169	334
170	999
171	139
212	64
