Mass spectrum: 1-METHYLSILACYCLOPENTANE; EI-MS
Formula: C5H12Si
Exact mass: 100.07083
Instrument type: EI-MS
m/z	relative intensity
43	48
44	141
45	42
56	14
57	51
58	61
59	43
70	37
71	71
72	999
73	101
74	43
83	18
84	14
85	91
86	10
97	10
99	39
100	200
101	23
102	9
