Mass spectrum: 1,3-DIMETHYL-2H-PYRIMIDO(1,2-A)(1,3,5)TRIAZINE-2,4,8-(1H,3H)-TRIONE; EI-MS
Formula: C8H8N4O3
Exact mass: 208.05964
Instrument type: EI-MS
m/z	relative intensity
34	12
38	10
39	61
40	336
41	114
42	117
43	180
44	565
45	27
50	17
51	26
52	15
53	60
54	58
55	92
56	204
57	164
58	27
60	13
61	21
63	15
65	21
66	17
67	38
68	66
69	102
70	53
71	38
72	17
73	11
74	10
75	10
76	17
77	43
78	20
79	17
80	18
81	52
82	36
83	397
84	40
85	18
91	21
93	28
94	50
95	107
96	77
97	27
104	13
105	37
106	10
107	19
109	90
110	22
111	11
112	25
113	18
118	20
119	15
120	52
121	77
122	42
123	519
124	52
125	22
126	13
127	32
128	42
133	11
134	78
135	126
136	38
137	21
149	61
150	16
151	793
152	92
153	21
154	10
155	39
156	47
167	37
168	19
169	14
179	21
180	17
182	10
183	14
208	999
209	151
210	20
