Mass spectrum: 7-HYDROXY-2-METHYL-3-DODECEN-5-ONE; EI-MS
Formula: C13H24O2
Exact mass: 212.17763
Instrument type: EI-MS
m/z	relative intensity
39	156
41	801
42	107
43	437
54	111
55	66
56	238
67	83
69	208
71	62
96	119
97	999
98	81
99	89
112	131
115	75
141	309
142	30
151	44
167	19
169	79
170	18
194	91
195	19
212	30
