Mass spectrum: PHENANTHRENE; EI-MS
Formula: C14H10
Exact mass: 178.07825
Instrument type: EI-MS
m/z	relative intensity
150	11
152	18
167	10
176	49
177	52
178	999
179	162
180	16
