Mass spectrum: 8-METHOXY-2,10-DIMETHYL-6-METHYLENE-7-(TRIMETHYLSILYL)METHYL-2-UNDECENE; EI-MS
Formula: C19H38OSi
Exact mass: 310.26919
Instrument type: EI-MS
m/z	relative intensity
41	105
43	108
45	250
55	28
59	226
67	25
69	314
70	45
71	119
73	585
74	66
75	39
79	20
81	94
85	30
89	145
93	26
95	46
101	999
102	117
105	81
107	22
124	27
135	61
137	35
141	43
194	21
209	39
222	41
241	50
278	30
310	23
