Mass spectrum: ORTHO-PHENYLENEDIAMINE; EI-MS
Formula: C6H8N2
Exact mass: 108.06875
Instrument type: EI-MS
m/z	relative intensity
400	21
420	26
500	33
510	49
520	87
530	99
540	108
630	25
640	43
650	25
660	12
670	19
750	12
760	22
770	101
780	32
790	33
800	307
810	97
900	14
910	29
1040	46
1050	35
1060	36
1070	192
1080	999
1090	73
