Mass spectrum: 2',3',4'-TRIMETHOXYACETOPHENONE; EI-MS
Formula: C11H14O4
Exact mass: 210.08921
Instrument type: EI-MS
m/z	relative intensity
43	59
77	12
95	12
106	14
109	15
120	12
121	15
122	12
123	12
124	12
134	23
135	27
137	51
139	16
149	20
151	52
152	110
153	13
162	17
167	19
177	51
179	19
192	40
193	66
195	999
196	111
197	15
210	426
211	54
212	8
