Mass spectrum: DIMETHYLSILACYCLOBUTANE (1,1-D6); EI-MS
Formula: C5H12Si
Exact mass: 100.07083
Instrument type: EI-MS
m/z	relative intensity
46	67
47	94
48	103
49	13
60	15
62	10
64	16
65	99
75	19
76	19
77	43
78	999
79	93
80	38
88	43
91	16
106	242
107	27
108	11
