Mass spectrum: 1,2-DIETHYL-1,2-DIMETHYLDISILANE; EI-MS
Formula: C6H18Si2
Exact mass: 146.0947
Instrument type: EI-MS
m/z	relative intensity
28	27
29	36
30	69
32	45
33	11
40	13
41	16
42	23
43	379
44	220
45	787
46	54
47	26
53	30
54	12
55	47
56	16
57	62
58	23
59	267
60	25
67	18
68	31
69	72
70	42
71	94
72	999
73	854
74	119
75	80
76	18
77	12
81	20
82	20
83	19
84	16
85	64
86	76
87	253
88	121
89	489
90	70
91	43
99	16
100	40
101	126
102	72
103	112
104	24
105	15
117	203
118	35
119	18
130	50
131	50
132	14
133	14
145	37
146	430
147	80
148	37
