Mass spectrum: (3E,7E,11E)-CEMBRA-3,7,11,15-TETRAENE; EI-MS
Name: CEMBRENE-A
Formula: C20H32
Exact mass: 272.2504
Instrument type: EI-MS
m/z	relative intensity
41	790
42	90
43	200
44	4
45	20
51	60
52	40
53	39
54	60
55	600
56	60
57	7
63	40
64	20
65	130
66	8
67	570
68	640
69	430
70	6
71	40
77	290
78	80
79	51
80	230
81	990
82	140
83	11
84	40
85	30
91	350
92	15
93	999
94	320
95	420
96	9
97	75
103	45
104	38
105	34
106	150
107	760
108	380
109	54
110	76
111	45
115	50
116	3
117	50
118	40
119	340
120	23
121	570
122	260
123	230
124	5
131	76
132	69
133	300
134	23
135	340
136	150
137	69
141	4
142	15
143	40
145	110
146	8
147	250
148	190
149	170
150	5
155	45
156	15
159	130
160	7
161	240
162	110
163	90
164	3
165	40
169	60
170	45
171	2
173	100
174	50
175	150
176	8
177	60
178	20
183	50
184	3
185	15
187	100
188	50
189	17
190	70
191	50
192	15
201	9
202	50
203	69
204	50
205	2
215	76
216	68
217	45
218	2
229	80
230	45
231	23
232	2
243	50
244	40
257	170
258	5
272	240
273	75
274	23
