Mass spectrum: 4-METHYL-5,6-DIHYDRO-2-PYRONE; EI-MS
Formula: C6H8O2
Exact mass: 112.05243
Instrument type: EI-MS
m/z	relative intensity
26	31
27	144
28	62
29	8
32	25
37	21
38	53
39	42
40	27
41	43
42	73
43	2
45	13
50	37
51	45
52	2
53	149
54	384
55	132
67	7
69	19
82	999
83	118
89	2
111	18
112	771
113	58
