Mass spectrum: (4R)-PERHYDRO-3-BENZYL-4-((E)-STYRYL)-1,3-OXAZIN-2-ONE; EI-MS
Formula: C19H19NO2
Exact mass: 293.14158
Instrument type: EI-MS
m/z	relative intensity
143	152
144	999
145	101
202	35
293	367
294	209
