Mass spectrum: 4,7-DI(PARA-ETHOXYPHENYL)-1,2,5-THIADIAZOLO(3,4-C)PYRIDINE; EI-MS
Formula: C21H19N3O2S
Exact mass: 377.1198
Instrument type: EI-MS
m/z	relative intensity
32	373
41	226
43	899
44	999
45	301
55	168
57	261
58	355
69	380
71	200
119	272
169	450
335	165
