Mass spectrum: (+)-DIACETYL-L-TARTARIC ACID; EI-MS
Formula: C8H10O8
Exact mass: 234.03757
Instrument type: EI-MS
m/z	relative intensity
43	99
61	14
76	12
100	148
102	13
103	18
118	36
129	176
130	27
147	64
151	20
160	22
175	622
176	44
189	114
193	172
194	12
217	140
218	13
235	999
236	101
237	22
