Mass spectrum: PHENYLTRIETHYNYLSILANE; EI-MS
Formula: C12H8Si
Exact mass: 180.03953
Instrument type: EI-MS
m/z	relative intensity
50	116
51	174
53	999
54	86
55	39
62	14
63	29
65	13
66	15
74	41
75	29
76	68
77	300
78	163
79	52
89	13
90	11
101	56
102	115
103	241
104	59
105	30
126	16
127	16
128	15
129	163
130	55
131	11
152	11
153	77
154	128
155	23
179	170
180	103
181	21
