Mass spectrum: PHOSPHOROTHIOIC ACID O-(2,6-DICHLORO-PARA-TOLYL) O,O-DIMETHYL ESTER; EI-MS
Formula: C9H11Cl2O3PS
Exact mass: 299.95436
Instrument type: EI-MS
m/z	relative intensity
47	30
51	15
62	15
63	33
75	21
77	16
79	52
93	117
109	50
111	42
112	19
113	14
125	193
127	11
141	14
175	32
176	13
177	21
187	15
249	38
250	101
251	25
252	38
265	999
266	118
267	405
268	49
269	32
