Mass spectrum: 4-ETHOXYCARBONYL-6-ETHYL-5-METHYL-2-(PARA-TOLYL)PERHYDROPYRROLO(3,4-C)PYRROLE-1,3-DIONE (3A,4-CIS-6,6A-TRANS); EI-MS
Name: (4S,6R)-4-ETHOXYCARBONYL-6-ETHYL-5-METHYL-2-(PARA-TOLYL)PERHYDROPYRROLO(3,4-C)PYRROLE-1,3-DIONE
Formula: C19H24N2O4
Exact mass: 344.17361
Instrument type: EI-MS
m/z	relative intensity
39	22
41	30
42	39
43	45
55	26
57	24
67	20
77	25
81	49
82	87
91	31
94	27
104	22
108	23
110	194
132	26
133	27
135	31
149	22
154	20
257	22
265	72
266	11
269	11
271	999
272	175
273	25
283	19
285	13
315	199
316	34
344	22
