Mass spectrum: 4-METHOXY-3-(TRIMETHYLSILYL)METHYL-1-OCTENE; EI-MS
Formula: C13H28OSi
Exact mass: 228.19094
Instrument type: EI-MS
m/z	relative intensity
39	15
41	99
42	10
43	46
44	16
45	367
46	13
53	10
54	15
55	29
57	11
58	29
59	105
60	10
67	71
68	16
69	291
70	52
71	58
72	14
73	329
74	35
75	30
77	14
81	14
82	23
83	10
85	12
89	295
90	30
91	15
95	14
96	14
97	26
101	999
102	114
103	18
124	22
127	13
128	16
197	10
