Mass spectrum: DIPHENYLACETIC ACID; EI-MS
Formula: C14H12O2
Exact mass: 212.08373
Instrument type: EI-MS
m/z	relative intensity
18	14
39	17
51	18
63	18
77	17
82	35
83	34
89	13
91	10
115	25
128	16
139	20
151	11
152	134
153	26
163	16
164	20
165	280
166	99
167	999
168	183
169	14
212	291
213	45
