Mass spectrum: UREA; EI-MS
Formula: CH4N2O
Exact mass: 60.03236
Instrument type: EI-MS
m/z	relative intensity
16	111
17	528
18	467
27	10
28	25
29	21
31	21
41	13
42	30
43	112
44	698
45	13
60	999
61	41
