Mass spectrum: L-TRYPTOPHAN; EI-MS
Formula: C11H12N2O2
Exact mass: 204.08988
Instrument type: EI-MS
m/z	relative intensity
28	12
43	13
45	14
60	10
77	27
102	25
103	53
115	15
117	27
128	29
129	40
130	999
131	125
132	25
143	12
149	10
157	10
158	25
159	30
204	84
205	14
