Mass spectrum: 1-METHYL-4-(5,9,13,17-TETRAMETHYL-1-OXO-4,8,12,16-OCTADECATETRAEN-1-YL)-PIPERADINE-1-OXIDE; EI-MS
Formula: C27H46N2O2
Exact mass: 430.35593
Instrument type: EI-MS
m/z	relative intensity
28	272
29	160
32	236
41	312
42	201
43	319
44	147
55	226
56	326
57	466
58	624
67	210
69	376
70	685
71	174
79	158
81	400
83	277
93	148
95	170
97	177
98	759
99	563
100	183
101	999
107	139
109	167
127	219
133	128
135	122
142	165
147	126
166	180
209	913
210	285
223	130
277	317
278	14
291	119
412	121
430	213
