Mass spectrum: 3,4-METHYLENEDIOXYBENZENEMETHANOL; EI-MS
Formula: C8H8O3
Exact mass: 152.04734
Instrument type: EI-MS
m/z	relative intensity
65	95
66	48
77	54
79	15
93	247
94	107
95	16
105	27
121	46
122	184
123	199
124	16
135	307
136	28
151	225
152	999
153	91
154	9
