Mass spectrum: 3,5-DIMETHOXYBENZOIC ACID; EI-MS
Formula: C9H10O4
Exact mass: 182.05791
Instrument type: EI-MS
m/z	relative intensity
39	24
41	33
43	20
52	15
53	26
55	31
59	13
65	55
66	21
67	13
68	25
69	41
77	84
78	33
79	69
80	14
81	39
92	19
93	17
94	72
95	42
96	35
105	79
106	21
107	110
108	26
109	205
110	15
111	89
122	90
123	18
135	219
136	25
137	61
139	39
151	53
152	86
153	17
165	52
181	24
182	999
183	101
184	13
