Mass spectrum: 4-ETHOXYPHENYLACETIC ACID; EI-MS
Formula: C10H12O3
Exact mass: 180.07864
Instrument type: EI-MS
m/z	relative intensity
43	7
45	6
53	7
55	6
77	67
78	17
79	22
90	7
91	13
105	7
106	8
107	999
108	83
109	11
135	450
136	45
152	32
180	482
181	53
182	6
