Mass spectrum: 4-NITROBENZYL BENZOATE; EI-MS
Formula: C14H11NO4
Exact mass: 257.06881
Instrument type: EI-MS
m/z	relative intensity
27	12
30	74
39	36
50	58
51	171
52	26
62	11
63	54
64	22
74	14
75	18
76	46
77	367
78	135
79	10
89	143
90	63
105	999
106	135
107	16
136	23
152	13
165	12
166	12
210	17
212	43
240	47
257	209
258	34
