Mass spectrum: PARA-FLUOROANISOLE; EI-MS
Formula: C7H7FO
Exact mass: 126.04809
Instrument type: EI-MS
m/z	relative intensity
15	50
26	11
29	32
31	45
37	21
38	30
39	39
43	20
49	11
50	64
51	36
53	11
56	34
57	218
58	13
61	26
62	36
63	69
64	14
68	21
69	33
70	15
73	12
74	37
75	108
76	11
77	14
81	51
82	41
83	759
84	44
94	14
95	96
96	101
97	40
110	14
111	543
112	40
126	999
127	78
