Mass spectrum: DL-ALANINE; EI-MS
Formula: C3H7NO2
Exact mass: 89.04768
Instrument type: EI-MS
m/z	relative intensity
14	10
15	58
18	255
26	16
27	54
28	149
29	22
30	11
40	20
41	34
42	121
43	36
44	999
45	49
46	21
74	14
90	47
