Mass spectrum: N-(BENZYLOXYCARBONYL)-(S)-PROLINE; EI-MS
Formula: C13H15NO4
Exact mass: 249.10011
Instrument type: EI-MS
m/z	relative intensity
39	48
41	61
42	22
43	22
44	13
45	10
51	26
63	20
65	114
68	24
69	21
70	119
77	23
79	15
89	30
90	20
91	999
92	107
102	22
107	21
108	70
114	388
115	31
160	243
161	34
204	126
205	19
249	52
250	11
