Mass spectrum: 3-ETHOXYPROPYLAMINE; EI-MS
Formula: C5H13NO
Exact mass: 103.09971
Instrument type: EI-MS
m/z	relative intensity
15	33
18	41
26	26
27	128
28	62
29	117
30	999
31	108
39	20
41	43
42	51
43	43
44	56
45	61
47	12
56	189
57	141
58	64
59	41
74	120
86	89
