Mass spectrum: N-1-PHENYLPROPYLPROPANAMIDE; EI-MS
Formula: C12H17NO
Exact mass: 191.13101
Instrument type: EI-MS
m/z	relative intensity
32	155
41	65
43	126
51	71
57	206
77	102
79	62
91	167
104	78
106	999
107	89
117	51
118	83
120	57
134	50
162	215
191	60
