Mass spectrum: 2-SULFANILAMIDOQUINOXALINE; EI-MS
Name: SULFAQUNOXALINE
Formula: C14H12N4O2S
Exact mass: 300.0681
Instrument type: EI-MS
m/z	relative intensity
27	10
28	16
38	18
39	88
40	13
41	19
50	17
51	19
52	27
62	18
63	69
64	60
65	263
66	41
75	12
76	18
80	22
89	14
90	168
91	62
92	524
93	89
102	21
107	14
108	284
109	26
116	15
117	48
118	95
119	16
129	15
140	51
144	46
145	100
146	13
156	179
157	21
234	36
235	542
236	999
237	161
238	13
300	109
301	24
