Mass spectrum: 1,1,2,2-TETRAMETHYLDISILANE; EI-MS
Formula: C4H14Si2
Exact mass: 118.0634
Instrument type: EI-MS
m/z	relative intensity
28	12
31	20
43	167
44	26
45	26
52	21
57	10
58	718
59	999
60	83
61	38
72	17
73	989
74	83
75	36
77	18
87	20
99	12
100	12
101	63
102	169
103	311
104	48
105	22
116	14
117	100
118	461
119	78
120	38
