Mass spectrum: 3-HYDROXY-4-METHOXYBENZOIC ACID METHYL ESTER; EI-MS
Formula: C9H10O4
Exact mass: 182.05791
Instrument type: EI-MS
m/z	relative intensity
65	20
67	15
77	18
108	33
109	13
111	41
123	94
136	16
137	12
139	40
151	942
152	88
153	11
167	53
181	17
182	999
183	99
184	13
