Mass spectrum: 2',5'-DIHYDROXYACETOPHENONE; EI-MS
Formula: C8H8O3
Exact mass: 152.04734
Instrument type: EI-MS
m/z	relative intensity
27	11
43	71
53	40
55	11
69	36
77	14
78	18
81	132
82	11
105	12
108	13
109	139
110	21
134	43
137	999
138	78
152	853
153	76
154	9
