Mass spectrum: 2'-HYDROXY-4'-METHOXYACETOPHENONE; EI-MS
Formula: C9H10O3
Exact mass: 166.06299
Instrument type: EI-MS
m/z	relative intensity
41	11
43	21
65	17
69	10
77	10
80	13
93	10
95	57
108	52
151	999
152	90
153	10
165	25
166	496
167	48
168	6
