Mass spectrum: DIMETHYLPROPYLSILANE; EI-MS
Formula: C5H14Si
Exact mass: 102.08648
Instrument type: EI-MS
m/z	relative intensity
15	10
27	35
28	20
29	4
31	66
39	26
41	20
42	3
43	180
44	33
45	157
46	1
53	19
55	23
57	20
58	32
59	999
60	84
61	33
71	1
72	12
73	29
85	12
86	2
87	99
88	12
100	34
101	7
102	46
