Mass spectrum: 2-PARA-TOLYLPERHYDROPYRROLO(3,4-C)PYRROLIZINE-1,3-DIONE (8A,8B-CIS); EI-MS
Formula: C16H18N2O2
Exact mass: 270.13683
Instrument type: EI-MS
m/z	relative intensity
40	244
41	97
42	229
43	150
44	61
52	111
53	73
54	186
55	125
56	495
57	74
63	53
65	113
67	67
68	209
70	102
77	207
78	122
79	69
80	354
82	84
83	999
84	78
90	46
91	98
93	30
104	127
105	87
106	66
107	34
108	206
109	37
117	34
118	28
130	39
132	181
133	165
134	28
143	25
159	27
186	27
187	76
270	134
271	32
81	389
