Mass spectrum: 4,4'-DICHLOROBENZOPHENONE; EI-MS
Formula: C13H8Cl2O
Exact mass: 249.99522
Instrument type: EI-MS
m/z	relative intensity
27	11
50	118
51	53
61	12
63	11
73	16
74	88
75	326
76	89
77	13
84	12
85	43
87	16
93	12
104	15
110	15
111	445
112	53
113	141
114	10
139	999
140	79
141	326
142	25
150	15
151	15
152	29
215	67
216	12
217	23
250	241
251	35
252	155
253	23
254	27
