Mass spectrum: DI(2-ETHYLHEXYL) OCTANEDIOATE; EI-MS
Name: SUBERICACID DI(2-ETHYLHEXYL) ESTER
Formula: C26H50O4
Exact mass: 426.37091
Instrument type: EI-MS
m/z	relative intensity
29	37
41	106
42	46
43	160
55	168
56	53
57	358
69	110
70	280
71	289
83	110
84	78
97	57
98	119
112	312
113	182
125	30
139	46
143	69
158	28
165	22
166	39
184	22
185	999
187	119
203	44
298	54
315	23
