Mass spectrum: 1,1,2,2-TETRAMETHYLDISILANE (1,2-D2); EI-MS
Formula: C4H14Si2
Exact mass: 118.0634
Instrument type: EI-MS
m/z	relative intensity
28	11
31	15
32	11
43	166
44	29
45	22
52	13
57	14
58	759
59	104
60	999
61	74
62	37
72	17
73	874
74	113
75	40
77	13
86	14
88	16
101	32
102	29
103	112
104	24
105	311
106	42
107	28
116	11
118	53
119	18
120	461
121	68
122	34
