Mass spectrum: 1,3-CYCLOHEXANEDIONE; EI-MS
Formula: C6H8O2
Exact mass: 112.05243
Instrument type: EI-MS
m/z	relative intensity
14	65
15	30
18	13
26	57
27	164
29	30
32	41
37	14
38	45
39	192
41	170
42	999
43	98
50	13
51	11
53	11
55	252
56	51
69	36
70	56
83	95
84	251
85	11
112	95
