Mass spectrum: 3-PHENOXY-1,2-EPOXYPROPANE; EI-MS
Formula: C9H10O2
Exact mass: 150.06808
Instrument type: EI-MS
m/z	relative intensity
31	360
39	189
51	159
55	31
57	320
65	164
66	174
77	479
78	42
79	142
91	138
94	999
95	97
107	249
119	41
120	133
150	839
151	88
