Mass spectrum: 2,3,5,6-BENZO-1,1,4,4-TETRAETHYL-1,4-DISILACYCLOHEXA-2,5-DIENE; EI-MS
Formula: C20H28Si2
Exact mass: 324.17295
Instrument type: EI-MS
m/z	relative intensity
54	11
105	200
106	11
119	42
133	32
181	21
209	32
211	137
212	32
239	105
240	21
267	242
268	63
269	21
295	999
296	305
297	105
298	11
324	40
325	11
