Mass spectrum: DIMETHYLPROPYLSILANE (2-D); EI-MS
Formula: C5H14Si
Exact mass: 102.08648
Instrument type: EI-MS
m/z	relative intensity
27	30
28	23
29	35
31	5
32	29
39	22
41	24
42	2
43	121
44	65
45	74
46	14
47	12
53	13
55	16
57	1
58	375
59	416
60	999
61	9
62	36
72	19
73	29
85	1
86	22
88	147
89	16
100	5
101	69
102	11
103	54
