Mass spectrum: 4-ACETYLBENZONITRILE; EI-MS
Name: 4'-CYANOACETOPHENONE
Formula: C9H7NO
Exact mass: 145.05276
Instrument type: EI-MS
m/z	relative intensity
15	17
38	12
39	18
42	15
43	162
50	69
51	85
52	15
62	16
63	25
64	12
74	31
75	127
76	94
89	15
99	10
101	13
102	501
103	57
130	999
131	92
145	256
146	30
