Mass spectrum: 1-DIMETHYLSILYL-3-DIMETHYLSILYLPROPANE (D6); EI-MS
Formula: C7H20Si2
Exact mass: 160.11035
Instrument type: EI-MS
m/z	relative intensity
27	12
28	52
29	66
30	44
31	123
32	22
33	76
34	74
39	26
41	24
42	24
43	271
44	90
45	139
46	193
47	38
48	82
49	28
53	24
55	32
56	12
57	56
58	147
59	964
60	100
61	117
62	239
63	48
64	80
65	999
66	80
67	44
69	20
71	28
72	347
73	88
74	30
75	24
76	229
77	36
78	377
79	263
80	28
81	12
82	10
83	11
84	11
85	371
86	54
87	118
88	375
89	50
90	24
91	36
93	74
98	12
99	56
100	434
101	124
102	92
103	28
104	36
105	74
106	383
107	119
108	32
109	22
118	20
119	16
120	54
121	32
122	111
123	136
124	24
125	16
132	12
134	32
135	10
136	86
137	52
138	14
139	30
146	26
147	16
148	307
149	88
150	48
151	347
152	66
153	28
163	18
164	151
165	271
166	92
167	28
