Mass spectrum: PARA-TRIMETHYLSILYLPENTAMETHYLDISILANYLBENZENE; EI-MS
Formula: C14H28Si3
Exact mass: 280.14988
Instrument type: EI-MS
m/z	relative intensity
58	11
59	64
72	468
73	447
74	43
82	11
83	11
105	11
108	11
109	21
13	11
131	21
132	21
133	32
134	21
135	32
145	32
147	11
161	21
164	11
175	43
177	128
178	21
191	74
192	74
193	21
196	43
197	999
198	223
199	85
265	43
266	13
279	13
280	106
281	30
282	17
