Mass spectrum: BETA-HYDROXY-4-METHOXYBENZENEPROPANENITRILE; EI-MS
Formula: C10H11NO2
Exact mass: 177.07898
Instrument type: EI-MS
m/z	relative intensity
15	41
18	22
27	15
28	55
29	26
32	13
38	20
39	75
40	39
41	41
43	11
50	29
51	51
52	13
53	14
62	14
63	47
64	33
65	64
66	72
68	11
76	11
77	208
78	33
79	29
89	11
91	14
92	39
93	11
94	171
95	11
107	17
109	200
110	13
122	12
135	55
136	14
137	999
138	74
177	89
