Mass spectrum: 3,5-DIMETHOXYBENZOIC ACID METHYL ESTER; EI-MS
Formula: C10H12O4
Exact mass: 196.07356
Instrument type: EI-MS
m/z	relative intensity
77	20
78	12
107	38
108	28
109	35
122	71
123	20
125	11
135	44
137	116
138	224
139	22
165	401
166	51
195	12
196	999
197	109
198	15
