Mass spectrum: 1-PHENYL-1-(PENTAMETHYLCYCLOPENTA-2,4-DIENYL)DIBENZOSILACYCLOPENTADIENE; EI-MS
Formula: C28H28Si
Exact mass: 392.19603
Instrument type: EI-MS
m/z	relative intensity
53	32
54	68
56	21
77	27
78	11
79	11
91	27
105	27
119	58
134	121
135	21
229	21
254	21
255	84
256	53
257	999
258	242
259	58
334	47
390	26
392	547
393	221
394	58
