Mass spectrum: 2-(3-((Z)-3-TRIBUTYLSTANNYL-1-PROPENOXY)-(2R,3S,5AR,6AS,10AR,12AS)-TETRAHYDROPYRANO(3,2-B)OXEPANO(2',3':6,7)OXEPAN-2-YL)ETHANAL; EI-MS
Formula: C30H54O5Sn
Exact mass: 614.29932
Instrument type: EI-MS
m/z	relative intensity
55	75
57	52
67	63
69	49
70	23
71	199
79	30
81	53
83	38
84	37
85	30
95	24
97	543
98	111
99	22
110	56
111	84
112	17
119	22
121	34
123	22
131	14
140	38
141	175
154	24
167	21
173	47
174	23
175	190
176	110
177	307
178	88
179	319
180	16
181	76
183	42
211	24
223	14
230	35
231	166
232	150
233	280
234	183
235	351
236	25
237	34
239	53
247	22
249	54
250	20
251	86
253	47
2457	14
267	212
268	45
269	53
274	27
275	46
276	54
277	55
278	57
287	255
288	179
289	449
290	237
291	601
292	69
293	74
295	93
306	22
309	30
311	102
312	43
313	135
314	24
315	94
317	23
319	21
324	101
537	22
538	13
539	23
541	12
553	402
554	323
555	747
556	416
557	999
558	271
559	165
560	28
561	143
562	24
569	41
570	36
571	86
572	34
573	135
574	34
575	15
612	12
613	11
614	32
