Mass spectrum: 4-AMINOPHENYL DISULFIDE; EI-MS
Name: 4,4'-DITHIODIANILINE
Formula: C12H12N2S2
Exact mass: 248.04419
Instrument type: EI-MS
m/z	relative intensity
28	30
39	18
45	18
52	15
53	39
54	17
63	16
65	21
69	17
70	14
80	271
81	29
91	15
93	24
96	16
97	57
123	30
124	999
125	310
126	64
127	16
248	424
249	66
250	42
