Mass spectrum: (+)-ALPHA-CYPERONE; EI-MS
Formula: C15H22O
Exact mass: 218.16707
Instrument type: EI-MS
m/z	relative intensity
41	999
42	75
43	490
45	2
51	100
52	70
53	390
54	8
55	520
56	50
57	80
58	2
59	40
63	30
64	20
65	40
66	70
67	400
68	90
69	31
70	40
71	100
77	360
78	9
79	430
80	130
81	320
82	14
83	80
84	25
85	30
91	47
92	100
93	470
94	130
95	29
96	80
97	80
103	50
104	2
105	335
106	110
107	320
108	22
109	320
110	120
111	100
112	5
115	50
116	20
117	80
118	4
119	340
120	145
121	300
122	17
123	105
124	110
125	30
127	3
128	30
131	65
132	70
133	23
134	140
135	160
136	325
137	18
138	50
143	30
145	60
146	4
147	280
148	110
149	70
150	8
151	20
157	50
159	50
160	3
161	265
162	140
163	50
175	19
176	90
177	40
179	15
185	4
189	40
190	50
200	15
201	1
203	120
204	50
218	290
219	15
220	30
