Mass spectrum: 4-(4-METHOXYPHENYL)BUTYRIC ACID; EI-MS
Formula: C11H14O3
Exact mass: 194.09429
Instrument type: EI-MS
m/z	relative intensity
41	14
42	10
43	54
44	1
45	10
55	23
56	20
57	3
58	23
60	23
69	18
70	2
71	19
73	11
77	14
78	1
83	11
84	10
85	11
91	2
108	11
119	22
121	999
122	10
123	10
134	415
135	52
149	1
180	18
194	317
195	43
