Mass spectrum: BETA-HYDROXY-4-METHYLBENZENEPROPANENITRILE; EI-MS
Formula: C10H11NO
Exact mass: 161.08406
Instrument type: EI-MS
m/z	relative intensity
28	37
38	16
39	110
40	49
41	67
50	32
51	71
53	17
63	63
64	16
65	128
66	12
77	282
78	45
89	36
90	16
91	117
92	37
93	410
94	30
105	15
115	13
119	62
120	31
121	999
122	73
161	53
