Mass spectrum: DIMETHYL FUMARATE; EI-MS
Formula: C6H8O4
Exact mass: 144.04226
Instrument type: EI-MS
m/z	relative intensity
30	18
31	24
39	47
41	39
42	16
53	145
54	109
55	35
59	278
81	44
82	64
85	496
86	29
99	23
100	20
113	999
114	250
115	22
144	52
