Mass spectrum: THIOACETAMIDE; EI-MS
Name: ETHANETHIOAMIDE
Formula: C2H5NS
Exact mass: 75.01427
Instrument type: EI-MS
m/z	relative intensity
410	362
420	243
430	15
450	40
460	14
470	13
480	11
570	21
580	69
590	147
600	344
610	14
620	15
640	137
660	12
750	999
760	35
770	45
