Mass spectrum: 1-METHYL-SILACYCLOPENTANE(2,2,5,5-D4); EI-MS
Formula: C5H12Si
Exact mass: 100.07083
Instrument type: EI-MS
m/z	relative intensity
27	14
28	52
29	45
30	31
31	12
32	14
40	20
41	14
42	42
43	176
44	226
45	211
46	89
47	29
53	17
54	23
55	14
56	34
57	39
58	45
59	82
60	99
61	42
62	23
67	10
68	10
70	10
71	24
72	56
73	108
74	999
75	171
76	62
86	14
87	37
88	26
89	74
103	47
104	228
105	27
106	10
