Mass spectrum: 1-(2-HYDROXY-3-PHENYLMETHOXYPHENYL)ETHANONE; EI-MS
Name: 3'-BENZYLOXY-2'-HYDROXYACETOPHENONE
Formula: C15H14O3
Exact mass: 242.09429
Instrument type: EI-MS
m/z	relative intensity
65	16
91	999
92	78
241	10
242	80
243	13
