Mass spectrum: 4,5-BENZO-1,1,3,3-TETRAETHYL-2-PENTYL-1,3-DISILACYCLOPENT-4-ENE; EI-MS
Formula: C20H36Si2
Exact mass: 332.23555
Instrument type: EI-MS
m/z	relative intensity
53	53
55	179
57	232
59	999
60	63
61	21
67	21
68	42
69	53
71	53
73	116
74	63
75	11
81	158
82	53
83	32
85	42
87	189
88	158
93	11
94	11
95	63
96	84
101	21
102	63
103	11
105	116
106	11
107	84
108	11
109	32
110	53
115	32
119	21
121	11
131	147
132	21
133	116
134	21
135	116
136	11
137	42
143	21
145	84
146	11
147	84
148	21
149	305
150	42
151	21
159	95
160	11
161	84
162	21
163	116
164	21
173	11
175	32
177	189
178	32
187	11
189	21
191	53
203	21
205	463
206	95
207	32
215	11
219	84
220	11
221	21
233	516
234	179
235	63
247	63
248	11
249	32
275	32
303	653
304	200
305	105
306	21
332	42
