Mass spectrum: 2-HYDROXY-ALPHA,ALPHA,ALPHA-TRIFLUOROTOLUENE; EI-MS
Name: 2-HYDROXYBENZOTRIFLUORIDE
Formula: C7H5F3O
Exact mass: 162.02925
Instrument type: EI-MS
m/z	relative intensity
37	50
38	135
39	209
40	121
44	16
50	112
51	66
53	66
55	13
56	27
57	92
61	47
62	76
63	241
64	62
65	35
66	14
68	22
69	123
70	13
71	33
72	22
74	44
75	142
76	27
81	26
83	54
87	31
88	160
89	15
92	23
93	14
94	20
95	76
96	25
99	26
101	12
113	72
114	999
115	78
123	22
132	11
133	36
141	19
142	473
143	182
144	18
145	23
162	444
163	39
