Mass spectrum: XANTHINE; EI-MS
Name: 3,7-DIHYDRO-1H-PURINE-2,6-DIONE
Formula: C5H4N4O2
Exact mass: 152.03343
Instrument type: EI-MS
m/z	relative intensity
14	28
16	18
18	32
27	179
28	550
29	37
32	56
38	49
39	45
40	14
41	18
42	37
43	155
44	77
52	28
53	381
54	999
55	58
67	11
69	21
70	92
80	37
81	83
82	51
109	490
110	35
152	760
153	68
