Mass spectrum: THEOPHYLLINE; EI-MS
Name: 3,7-DIHYDRO-1,3-DIMETHYL-1H-PURINE-2,6-DIONE
Formula: C7H8N4O2
Exact mass: 180.06473
Instrument type: EI-MS
m/z	relative intensity
15	43
18	12
27	11
28	66
38	11
39	16
40	55
41	159
42	55
53	136
54	18
56	27
58	12
66	20
67	61
68	328
69	30
70	18
81	10
94	51
95	479
96	83
122	51
123	80
124	33
136	13
151	72
152	24
179	10
180	999
181	94
