Mass spectrum: DIISOBUTYLMETHYLSILANE; EI-MS
Formula: C9H22Si
Exact mass: 158.14908
Instrument type: EI-MS
m/z	relative intensity
39	46
41	108
42	18
43	158
44	36
45	233
46	16
50	14
53	10
55	33
56	24
57	32
58	99
59	999
60	84
61	36
67	10
69	47
70	11
71	23
72	66
73	255
74	58
75	12
81	23
83	11
85	67
86	22
87	102
88	13
95	11
99	22
100	148
101	438
102	59
103	19
143	143
144	24
156	114
157	35
158	26
