Mass spectrum: 1,5-DIHYDROXYANTHRAQUINONE; EI-MS
Name: ANTHRARUFIN
Formula: C14H8O4
Exact mass: 240.04226
Instrument type: EI-MS
m/z	relative intensity
39	12
51	18
62	13
63	34
64	23
75	15
77	13
91	12
92	63
101	10
102	16
119	16
120	39
121	11
126	13
127	29
128	43
138	31
139	16
155	42
156	15
183	10
184	109
185	14
211	14
212	88
213	12
223	60
224	24
239	59
240	999
241	159
242	19
