Mass spectrum: 4-CARBOXLYBENZALDEHYDE; EI-MS
Name: 4-FORMYLBENZOIC ACID
Formula: C8H6O3
Exact mass: 150.03169
Instrument type: EI-MS
m/z	relative intensity
26	11
27	31
29	110
37	39
38	55
39	107
40	12
45	74
49	29
50	275
51	331
52	49
53	41
61	20
62	24
63	28
65	342
66	41
73	33
74	153
75	132
76	145
77	274
78	30
79	12
93	37
103	35
104	51
105	191
106	17
121	280
122	42
133	97
134	14
149	999
150	818
151	103
152	13
