Mass spectrum: 4-(2-CHLOROBENZOYL)-3-PHENYL-5-ISOXAZOLONE; EI-MS
Formula: C16H10ClNO3
Exact mass: 299.03492
Instrument type: EI-MS
m/z	relative intensity
36	8
38	7
39	17
50	37
51	48
52	11
61	5
62	9
63	31
64	6
74	19
75	109
76	63
77	45
85	13
87	8
88	6
89	51
90	10
102	102
103	41
104	22
105	11
110	8
111	246
112	45
113	92
116	73
117	17
132	9
138	6
139	999
140	301
141	619
142	141
144	20
156	8
158	5
161	6
165	11
259	7
299	6
