Mass spectrum: 2,2-DIMETHYLBUTANE; EI-MS
Formula: C6H14
Exact mass: 86.10955
Instrument type: EI-MS
m/z	relative intensity
27	14
28	19
29	158
32	7
39	9
41	282
42	20
43	802
44	30
53	8
55	75
56	330
57	999
58	42
69	5
70	46
71	860
72	46
