Mass spectrum: IODOACETIC ACID METHYL ESTER; EI-MS
Formula: C3H5IO2
Exact mass: 199.93342
Instrument type: EI-MS
m/z	relative intensity
41	11
42	109
45	18
59	58
73	594
74	34
127	84
128	14
139	11
140	31
141	317
168	39
169	299
200	999
201	38
