Mass spectrum: 1,3-BENZODIOXOLE-5-CARBOXALDEHYDE; EI-MS
Name: HELIOTROPIN
Formula: C8H6O3
Exact mass: 150.03169
Instrument type: EI-MS
m/z	relative intensity
29	61
37	36
38	59
39	46
50	65
51	56
53	65
61	82
62	177
63	391
64	84
65	245
66	42
74	21
79	21
91	109
92	26
119	85
120	21
121	301
122	46
149	999
150	904
151	86
