Mass spectrum: CIS-5-(6-CARBOXYHEXYL)-TRANS-4-(CIS-1-OCTENYL)-2,REF.-3-DIPHENYLISOXAZOLIDINE; EI-MS
Name: (3S,4S,5R)-5-(6-CARBOXYHEXYL)-4-(1-OCTENYL)-2,3-DIPHENYLISOXAZOLIDINE
Formula: C30H41NO3
Exact mass: 463.30864
Instrument type: EI-MS
m/z	relative intensity
41	107
43	82
51	53
55	104
67	95
69	71
77	256
78	46
81	68
83	42
91	577
92	59
95	45
104	117
105	125
115	41
128	43
129	44
168	49
169	43
180	292
181	423
182	291
196	152
197	216
198	999
199	150
234	57
447	40
463	338
464	135
