Mass spectrum: PARA-AMINOPHENOL; EI-MS
Name: 4-AMINOPHENOL
Formula: C6H7NO
Exact mass: 109.05276
Instrument type: EI-MS
m/z	relative intensity
25	13
26	84
27	183
28	179
29	186
30	27
37	30
38	60
39	145
40	44
41	94
42	42
49	12
50	42
51	72
52	224
53	289
54	169
55	82
56	13
61	18
62	26
63	55
64	38
65	42
66	19
67	10
68	25
78	14
79	14
80	584
81	140
82	43
91	10
108	108
109	999
110	106
