Mass spectrum: PERFLUOROTRIBUTYLAMINE; EI-MS
Name: HEPTACOSAFLUOROTRIBUTYLAMINE
Formula: C12F27N
Exact mass: 670.95996
Instrument type: EI-MS
m/z	relative intensity
51	12
69	771
100	103
113	23
114	36
119	85
131	405
132	13
150	28
164	11
169	30
181	21
201	24
214	14
219	999
220	45
228	10
246	22
264	237
265	13
376	11
396	25
414	116
415	10
448	24
464	39
466	35
484	40
502	235
503	24
614	25
