Mass spectrum: 4-METHOXYBENZYLAMINE; EI-MS
Formula: C8H11NO
Exact mass: 137.08406
Instrument type: EI-MS
m/z	relative intensity
15	32
27	15
28	102
29	17
30	149
38	20
39	64
40	12
41	33
50	39
51	64
52	31
53	15
54	13
62	15
63	50
64	33
65	71
66	57
67	42
74	13
76	13
77	150
78	96
79	59
81	12
89	37
90	12
91	68
92	31
93	87
94	128
95	24
104	43
105	57
106	413
107	49
108	88
109	188
110	16
119	53
120	120
121	400
122	93
123	11
134	31
135	16
136	999
137	829
138	81
