Mass spectrum: MANNITOL; EI-MS
Formula: C6H14O6
Exact mass: 182.07904
Instrument type: EI-MS
m/z	relative intensity
26	26
27	76
28	83
32	21
40	39
42	42
43	281
44	229
45	262
46	12
47	17
55	73
56	226
57	223
58	16
59	15
60	192
61	763
62	26
69	47
71	79
72	19
73	999
74	422
75	34
85	119
86	21
87	16
89	15
91	72
97	12
103	608
104	57
115	26
116	12
133	187
134	11
146	23
183	22
