Mass spectrum: THYMOL; EI-MS
Name: 5-METHYL-2-(1-METHYLETHYL)PHENOL
Formula: C10H14O
Exact mass: 150.10447
Instrument type: EI-MS
m/z	relative intensity
420	26
510	33
520	12
530	19
630	16
650	30
660	17
670	17
680	26
740	11
770	44
780	16
790	25
910	107
920	12
1020	12
1030	12
1050	29
1070	30
1150	71
1160	25
1170	80
1210	17
1330	16
1340	20
1350	999
1360	97
1450	13
1460	14
1480	11
1500	306
1510	33
