Mass spectrum: METHACRYLIC 10-MERCAPTO-1-DECANYL ESTER; EI-MS
Name: 10-MERCAPTO-1-DECANYL METHACRYLATE
Formula: C14H26O2S
Exact mass: 258.16535
Instrument type: EI-MS
m/z	relative intensity
28	100
29	400
32	30
41	999
42	340
43	400
44	60
45	34
55	840
57	320
67	420
68	36
69	760
71	320
73	270
74	28
75	300
81	400
82	320
83	36
87	950
95	290
101	320
230	28
258	260
