Mass spectrum: BICYCLO(4.3.0)NONAN-7-OL (7-D); EI-MS
Formula: C9H16O
Exact mass: 140.12012
Instrument type: EI-MS
m/z	relative intensity
28	21
29	29
30	10
31	12
41	96
42	69
43	103
44	15
45	38
46	17
52	10
53	15
54	141
55	251
56	186
57	140
58	96
59	271
60	26
66	60
67	481
68	263
69	92
70	28
71	42
72	22
73	17
77	12
78	21
79	97
80	220
81	999
82	254
83	213
84	76
85	26
86	29
91	12
92	14
93	93
94	345
95	272
96	549
97	322
98	56
99	29
100	14
107	48
108	68
109	47
110	15
111	17
112	69
113	49
121	11
122	63
123	998
124	139
125	17
141	53
142	11
