Mass spectrum: DEOXYCORTICOSTERONE ACETATE; EI-MS
Name: 4-PREGNEN-21-OL-3,20-DIONE ACETATE
Formula: C23H32O4
Exact mass: 372.23006
Instrument type: EI-MS
m/z	relative intensity
43	41
55	21
67	14
69	10
73	13
79	12
81	43
83	14
91	11
93	29
95	63
97	20
105	22
107	53
108	11
109	48
111	12
119	27
121	67
122	18
123	67
124	55
131	24
133	58
134	108
136	19
137	33
143	15
145	60
146	13
147	220
148	30
149	106
150	14
157	30
159	44
161	100
162	19
163	37
171	33
173	29
175	42
177	12
185	13
187	21
189	19
197	18
201	13
211	13
213	15
215	20
225	15
227	32
229	65
230	14
243	26
244	24
253	307
254	68
255	14
257	10
271	500
272	110
273	18
299	999
300	214
301	32
312	103
313	26
330	13
372	43
373	15
