Mass spectrum: 4-NITROPHENYL ACETATE; EI-MS
Name: 4-ACETOXYNITROBENZENE
Formula: C8H7NO4
Exact mass: 181.03751
Instrument type: EI-MS
m/z	relative intensity
15	31
26	10
30	53
38	42
39	53
42	33
43	999
44	22
50	33
51	17
52	15
53	14
54	11
61	13
62	42
63	126
64	68
65	117
74	16
75	15
76	14
81	54
92	11
93	66
94	12
109	197
110	16
123	72
139	175
140	27
181	160
182	44
