Mass spectrum: NAPHTHALENE (1,2,3,4,5,6,7,8-D8); EI-MS
Formula: C10H8
Exact mass: 128.0626
Instrument type: EI-MS
m/z	relative intensity
42	15
54	12
66	15
108	40
132	19
134	35
135	108
136	999
137	109
138	15
