Mass spectrum: (1R)-2-(2-TETRAHYDROPYRANYLOXY)-1-PROPIONYLAMINOETHYLBENZENE; EI-MS
Formula: C16H23NO3
Exact mass: 277.16779
Instrument type: EI-MS
m/z	relative intensity
29	187
41	141
43	87
55	78
57	289
67	91
74	91
77	72
78	72
79	52
85	882
86	52
91	84
103	57
104	123
106	729
107	87
119	80
120	251
162	135
163	783
164	93
175	76
176	180
194	999
195	138
278	175
