Mass spectrum: 3-MERCAPTOPROPIONIC ACID; EI-MS
Formula: C3H6O2S
Exact mass: 106.00885
Instrument type: EI-MS
m/z	relative intensity
26	11
27	196
28	431
29	91
31	11
34	35
35	91
42	66
43	87
45	223
46	91
47	294
49	14
55	134
58	20
59	99
60	498
61	232
62	28
63	21
73	92
87	33
88	460
89	47
90	23
106	999
107	52
108	49
