Mass spectrum: BENZYLMALONIC ACID; EI-MS
Formula: C10H10O4
Exact mass: 194.05791
Instrument type: EI-MS
m/z	relative intensity
39	21
44	476
45	22
51	27
52	14
55	43
65	84
77	131
78	232
79	77
91	999
92	91
102	26
103	196
104	515
105	148
107	15
131	239
132	192
133	27
147	218
148	352
149	45
150	277
151	29
194	227
195	24
