Mass spectrum: ACETOACETAILIDE; EI-MS
Formula: C10H11NO2
Exact mass: 177.07898
Instrument type: EI-MS
m/z	relative intensity
42	14
43	264
44	16
51	30
52	10
58	75
63	16
64	19
65	71
66	65
69	16
77	44
84	13
85	26
91	23
92	40
93	999
94	75
119	86
120	13
134	13
177	291
178	33
