Mass spectrum: GLYCOLIC ACID; EI-MS
Name: HYDROXYACETIC ACID
Formula: C2H4O3
Exact mass: 76.01604
Instrument type: EI-MS
m/z	relative intensity
14	13
19	34
28	31
29	271
30	53
31	999
32	320
42	25
44	17
45	125
46	13
47	17
49	141
77	100
