Mass spectrum: (E)-3-CYANOMETHYLENE-1-PARA-TOLYL-2,5-PYRROLIDINEDIONE; EI-MS
Formula: C13H10N2O2
Exact mass: 226.07423
Instrument type: EI-MS
m/z	relative intensity
38	90
39	91
51	84
52	51
64	121
65	399
75	129
76	79
77	52
86	123
87	333
96	81
98	99
99	60
133	130
135	73
161	161
169	63
170	55
183	157
197	65
198	195
211	98
225	74
226	999
227	154
