Mass spectrum: 4-METHOXY-3-(TRIMEHYLSILYL)METHYL-1-HEPTENE; EI-MS
Formula: C12H26OSi
Exact mass: 214.17529
Instrument type: EI-MS
m/z	relative intensity
39	13
41	33
43	32
44	15
45	551
46	21
54	18
55	161
56	10
57	88
58	26
59	89
67	65
68	22
71	24
72	13
73	353
74	38
75	32
77	13
81	23
82	12
85	11
86	13
87	999
88	99
89	298
90	31
91	15
95	12
97	21
103	10
110	39
127	12
128	18
167	10
183	5
