Mass spectrum: 6-ACETOXY-3,4-DIHYDRO-2,5,7,8-TETRAMETHYL-2H-1-BENZOPYRAN-2-BUTENOIC ACID ETHYL ESTER; EI-MS
Formula: C21H28O5
Exact mass: 360.19367
Instrument type: EI-MS
m/z	relative intensity
41	22
43	80
53	27
55	2
67	16
77	18
79	22
81	2
91	38
93	13
105	18
107	3
109	21
121	45
135	36
136	3
152	33
161	24
163	19
164	29
165	604
166	67
175	19
176	5
177	25
189	51
190	28
203	6
204	36
205	999
206	140
207	4
245	17
247	339
248	47
318	55
319	115
360	166
361	37
