Mass spectrum: 5-METHYL-4-PHENYL-2-PARA-TOLYLPERHYDROPYRROLO(3,4-C)PYRROLE-1,3-DIONE (3A,4-TRANS); EI-MS
Formula: C20H20N2O2
Exact mass: 320.15248
Instrument type: EI-MS
m/z	relative intensity
40	122
42	69
43	284
52	141
53	57
56	71
63	59
65	114
67	104
68	68
77	345
78	164
82	616
89	73
90	77
91	459
103	63
104	146
105	63
115	282
116	119
117	113
118	262
120	65
128	66
130	54
131	75
132	999
133	407
134	39
143	138
144	56
156	23
157	26
158	278
159	55
187	95
243	138
244	21
319	75
320	211
321	46
