Mass spectrum: 1-(2,3-DIPHENYLMETHOXYPHENYL)ETHANONE; EI-MS
Name: 2',3'-DIBENZYLOXYACETOPHENONE
Formula: C22H20O3
Exact mass: 332.14124
Instrument type: EI-MS
m/z	relative intensity
43	15
91	999
92	75
108	11
137	12
152	13
181	51
227	36
241	80
242	13
289	11
290	24
332	30
333	7
