Mass spectrum: 1,2-DI(5-(2-BROMOTHIENYL))-1,2-DIMETHYLDIPHENYLDISILANE; EI-MS
Formula: C22H20Br2S2Si2
Exact mass: 561.89117
Instrument type: EI-MS
m/z	relative intensity
51	52
52	69
53	141
54	461
56	54
58	54
63	62
64	62
65	90
66	83
67	97
69	72
75	225
77	288
78	82
79	172
80	71
81	65
82	115
85	83
91	728
92	71
93	193
101	57
102	101
103	84
105	746
106	95
107	376
109	378
115	183
117	60
119	349
120	70
121	59
125	52
126	67
127	155
129	82
135	148
137	82
139	54
141	75
143	111
145	682
146	110
147	55
151	60
158	54
161	61
177	100
179	58
181	90
187	198
189	52
197	342
198	74
199	913
200	125
201	999
202	507
203	145
279	60
281	730
282	144
283	769
284	139
285	79
326	63
328	67
363	110
365	127
410	168
412	335
413	79
414	183
483	688
484	289
485	811
486	279
487	191
547	285
548	273
549	637
550	604
551	451
552	369
553	130
554	63
562	109
563	119
564	239
565	247
566	194
567	148
