Mass spectrum: 2,4-DIMETHYL-4,4A-DIHYDRO-1H-(1,3,5)TRIAZINO(1,2-A)QUINAZOLINE-1,3,6(2H,5H)-TRIONE; EI-MS
Formula: C12H12N4O3
Exact mass: 260.09094
Instrument type: EI-MS
m/z	relative intensity
34	13
38	16
39	77
40	342
41	149
42	209
43	185
44	486
45	37
50	51
51	27
52	20
53	17
54	20
55	125
56	152
57	204
58	169
59	13
60	32
61	37
62	17
63	68
64	78
65	30
67	51
68	24
69	108
70	53
71	47
73	28
74	18
75	20
76	81
77	45
78	20
79	20
80	10
81	41
82	37
83	66
84	32
85	28
89	12
90	242
91	116
92	71
93	15
95	33
96	40
97	43
98	22
99	12
101	16
102	20
103	46
104	30
105	11
107	11
109	19
110	18
111	25
112	16
115	11
117	45
118	161
119	129
120	17
121	12
123	14
124	13
125	13
129	26
130	21
131	37
132	129
133	23
134	12
135	17
144	15
145	200
146	999
147	325
148	129
149	27
152	10
159	40
160	86
161	32
173	12
175	16
202	129
203	234
204	39
209	10
216	53
217	77
218	16
236	19
256	21
257	10
258	26
259	220
260	703
261	133
