Mass spectrum: OCTANE-3,6-DIMETHYL-1,8-BIS-(2-OXYTETRAHYDRO-2H-PYRANYL); EI-MS
Formula: C20H38O4
Exact mass: 342.27701
Instrument type: EI-MS
m/z	relative intensity
27	26
28	27
29	73
31	24
39	20
41	167
42	20
43	74
55	191
56	81
57	116
67	64
69	121
70	25
71	18
81	20
83	119
84	56
85	999
86	55
97	26
101	101
257	41
