Mass spectrum: 3H,4H-3-TERT-BUTYLPYRRO(1,2-D)(1,2,4)TRIAZIN-4-ONE; EI-MS
Formula: C10H13N3O
Exact mass: 191.10586
Instrument type: EI-MS
m/z	relative intensity
50	38
51	129
52	114
53	33
54	10
55	27
56	41
57	95
64	23
65	23
66	23
78	32
79	361
80	26
84	10
93	17
106	12
135	999
136	99
191	113
192	15
