Mass spectrum: GLYCINE ANHYDRIDE; EI-MS
Name: 2,5-PIPERAZINEDIONE
Formula: C4H6N2O2
Exact mass: 114.04293
Instrument type: EI-MS
m/z	relative intensity
14	37
15	29
26	11
27	107
28	913
29	464
30	999
31	21
40	22
41	31
42	385
43	402
44	30
54	17
55	21
56	71
57	23
58	40
59	23
71	437
72	24
85	19
86	81
114	879
115	70
