Mass spectrum: 2-HYDROXY-4-METHOXYPHENYL PHENYL KETONE; EI-MS
Name: 2-HYDROXY-4-METHOXY-BENZOPHENONE
Formula: C14H12O3
Exact mass: 228.07864
Instrument type: EI-MS
m/z	relative intensity
51	57
52	19
77	156
79	2
95	42
100	13
105	105
108	7
122	15
128	29
150	25
151	86
152	80
184	11
211	19
227	999
228	806
229	124
