Mass spectrum: 3-HEPTYL HEXANOATE; EI-MS
Formula: C13H26O2
Exact mass: 214.19328
Instrument type: EI-MS
m/z	relative intensity
27	116
29	203
31	11
39	67
41	292
42	100
43	416
44	17
45	10
53	16
54	16
55	167
56	232
57	291
58	17
59	17
60	90
61	18
69	125
70	115
71	232
72	17
73	29
83	16
87	19
98	205
99	999
100	64
115	17
116	77
117	111
157	25
185	13
