Mass spectrum: DIMETHYL CIS-3,3-DIMETHYL-2,3,4,5,6,7-HEXAHYDROINDEN-1(H)-ONE-5,6-DICARBOXYLATE; EI-MS
Name: DIMETHYL (5R,6S)-3,3-DIMETHYL-2,3,4,5,6,7-HEXAHYDROINDEN-1(H)-ONE-5,6-DICARBOXYLATE
Formula: C15H20O5
Exact mass: 280.13107
Instrument type: EI-MS
m/z	relative intensity
38	56
40	86
42	711
43	78
58	150
77	187
78	85
79	118
91	163
93	55
105	189
107	56
117	53
119	305
120	48
121	999
122	99
137	62
145	70
147	50
161	576
162	86
163	50
165	81
180	159
205	55
208	156
209	216
220	137
221	397
222	81
240	214
249	139
280	296
281	53
