Mass spectrum: 12beta-Hydroxy-5alpha-cholan-24-oic Acid Methyl ester; EI-MS
Class: Natural Product; BILE ACID
Formula: C25H42O3
Exact mass: 390.31340
SMILES: C(C4)C([H])(C(CCC(OC)=O)C)C(C([H])41)(C)C(O)CC(C(C)23)([H])C(CCC(CCCC3)([H])2)1[H]
InChI: 1/C25H42O3/c1-16(8-13-23(27)28-4)19-11-12-20-18-10-9-17-7-5-6-14-24(17,2)21(18)15-22(26)25(19,20)3/h16-22,26H,5-15H2,1-4H3/t16-,17-,18+,19-,20+,21+,22-,24+,25-/m1/s1
Instrument type: EI-MS
m/z	relative intensity
201	15
202	17
203	81
204	26
205	14
206	6
207	5
208	86
209	16
215	42
216	25
217	57
218	33
219	12
220	6
221	7
229	13
230	24
231	12
233	78
234	39
235	7
243	13
244	13
245	6
247	6
249	6
255	6
256	52
257	999
258	227
259	30
262	6
263	11
275	30
276	6
285	18
286	7
299	6
305	5
340	5
343	8
357	39
358	11
359	25
372	64
373	36
