Mass spectrum: 3beta,7alpha,12alpha-Trihydroxy-5alpha-cholan-24-oic Acid Methyl ester; EI-MS
Class: Natural Product; BILE ACID
Formula: C25H42O5
Exact mass: 422.30322
SMILES: C(C1)C(CC(C4)(C(C)1C(C3)(C([H])(C(O)4)C([H])(C2(C)C3O)CCC(C(CCC(OC)=O)C)2[H])[H])[H])O
InChI: 1/C25H42O5/c1-14(5-8-22(29)30-4)17-6-7-18-23-19(13-21(28)25(17,18)3)24(2)10-9-16(26)11-15(24)12-20(23)27/h14-21,23,26-28H,5-13H2,1-4H3/t14-,15-,16+,17-,18+,19+,20-,21+,23+,24+,25-/m1/s1
Instrument type: EI-MS
m/z	relative intensity
201	55
207	55
208	39
211	70
213	44
215	38
217	23
219	62
227	47
229	73
230	28
231	36
232	54
233	54
235	21
244	58
245	52
246	29
247	96
248	29
249	40
253	125
254	28
260	50
261	310
262	90
265	77
271	999
272	253
273	41
274	22
289	299
290	62
299	76
300	36
313	50
353	36
354	25
355	30
357	36
368	23
371	61
372	37
373	64
375	53
386	872
387	254
388	40
404	39
