Mass spectrum: 3beta,12beta-Dihydroxy-5alpha-cholan-24-oic Acid Methyl ester; EI-MS
Class: Natural Product; BILE ACID
Formula: C25H42O4
Exact mass: 406.30831
SMILES: C(C14[H])C(CCC(C(C2)([H])C(CC4)(C([H])(C3)C(C(C3)([H])C(CCC(OC)=O)C)(C)C2O)[H])1C)O
InChI: 1/C25H42O4/c1-15(5-10-23(28)29-4)19-8-9-20-18-7-6-16-13-17(26)11-12-24(16,2)21(18)14-22(27)25(19,20)3/h15-22,26-27H,5-14H2,1-4H3/t15-,16+,17+,18+,19-,20+,21+,22-,24+,25-/m1/s1
Instrument type: EI-MS
m/z	relative intensity
201	39
203	20
205	40
208	105
209	22
213	24
214	17
215	30
216	16
217	16
218	16
219	34
220	13
221	13
227	11
229	10
231	33
232	11
233	33
234	19
235	12
245	13
246	24
247	11
249	72
250	25
255	167
256	35
259	12
260	11
263	11
271	15
272	64
273	999
274	220
275	28
283	12
291	25
301	18
302	15
355	11
356	10
357	34
358	10
373	28
374	11
388	76
389	20
