Mass spectrum: 12alpha-Hydroxy-5alpha-cholan-24-oic Acid Methyl ester; EI-MS
Class: Natural Product; BILE ACID
Formula: C25H42O3
Exact mass: 390.31340
SMILES: C(C4)C([H])(C(CCC(OC)=O)C)C(C([H])41)(C)C(O)CC(C(C)23)([H])C(CCC(CCCC3)([H])2)1[H]
InChI: 1/C25H42O3/c1-16(8-13-23(27)28-4)19-11-12-20-18-10-9-17-7-5-6-14-24(17,2)21(18)15-22(26)25(19,20)3/h16-22,26H,5-15H2,1-4H3/t16-,17-,18+,19-,20+,21+,22+,24+,25-/m1/s1
Instrument type: EI-MS
m/z	relative intensity
201	21
202	10
203	59
204	21
205	14
208	51
209	14
215	49
216	46
217	51
218	26
219	10
220	8
221	7
229	8
230	28
231	18
232	7
233	52
234	26
243	13
244	8
247	5
248	6
255	6
256	51
257	999
258	227
259	29
262	8
263	10
275	13
285	13
286	11
299	7
343	8
357	40
358	18
359	25
360	6
372	82
373	25
374	5
