Mass spectrum: 3beta,7beta,12alpha-Trihydroxy-5alpha-cholan-24-oic Acid Methyl ester; EI-MS
Class: Natural Product; BILE ACID
Formula: C25H42O5
Exact mass: 422.30322
SMILES: C(C1)C(CC(C4)(C(C)1C(C3)(C([H])(C(O)4)C([H])(C2(C)C3O)CCC(C(CCC(OC)=O)C)2[H])[H])[H])O
InChI: 1/C25H42O5/c1-14(5-8-22(29)30-4)17-6-7-18-23-19(13-21(28)25(17,18)3)24(2)10-9-16(26)11-15(24)12-20(23)27/h14-21,23,26-28H,5-13H2,1-4H3/t14-,15-,16+,17-,18+,19+,20+,21+,23+,24+,25-/m1/s1
Instrument type: EI-MS
m/z	relative intensity
201	47
203	21
205	60
206	22
207	61
208	199
209	45
211	51
213	37
214	15
215	24
217	23
219	29
221	18
227	25
228	18
229	47
230	16
231	30
232	105
233	32
234	16
243	15
244	22
245	27
247	42
248	20
249	43
250	23
251	14
253	132
254	38
257	54
258	61
259	17
260	20
261	49
262	41
263	21
265	70
266	21
270	17
271	928
272	220
273	36
287	21
288	77
289	999
290	241
291	35
299	35
300	20
313	18
317	17
353	15
355	29
357	15
371	32
372	39
373	52
374	16
386	221
387	62
404	28
