Mass spectrum: 3alpha,12beta-Dihydroxy-5alpha-cholan-24-oic Acid Methyl ester; EI-MS
Name: Allo-isodeoxycholic Acid Methyl ester
Class: Natural Product; BILE ACID
Formula: C25H42O4
Exact mass: 406.30831
SMILES: C(C14[H])C(CCC(C(C2)([H])C(CC4)(C([H])(C3)C(C(C3)([H])C(CCC(OC)=O)C)(C)C2O)[H])1C)O
InChI: 1/C25H42O4/c1-15(5-10-23(28)29-4)19-8-9-20-18-7-6-16-13-17(26)11-12-24(16,2)21(18)14-22(27)25(19,20)3/h15-22,26-27H,5-14H2,1-4H3/t15-,16+,17-,18+,19-,20+,21+,22-,24+,25-/m1/s1
Instrument type: EI-MS
m/z	relative intensity
201	45
202	17
203	33
204	15
205	54
206	11
208	152
209	37
213	41
214	17
215	44
216	21
217	24
218	21
219	46
221	14
229	17
231	52
232	24
233	55
234	21
235	15
241	13
245	11
246	29
249	73
250	40
255	300
256	67
257	11
259	12
260	18
262	12
263	15
271	14
272	66
273	999
274	246
275	45
291	37
301	20
355	12
357	56
358	17
359	13
370	16
373	36
374	15
368	94
389	31
