Mass spectrum: 3alpha,7beta-Dihydroxy-5alpha-cholan-24-oic Acid Methyl ester; EI-MS
Name: Alloursodeoxycholic Acid Methyl ester
Class: Natural Product; BILE ACID
Formula: C25H42O4
Exact mass: 406.30831
SMILES: C(O)(C2)C(C34[H])(C(CCC(C)3C(C(CCC(OC)=O)C)([H])CC4)([H])C(C([H])21)(C)CCC(O)C1)[H]
InChI: 1/C25H42O4/c1-15(5-8-22(28)29-4)18-6-7-19-23-20(10-12-25(18,19)3)24(2)11-9-17(26)13-16(24)14-21(23)27/h15-21,23,26-27H,5-14H2,1-4H3/t15-,16-,17-,18-,19+,20+,21+,23+,24+,25-/m1/s1
Instrument type: EI-MS
m/z	relative intensity
201	69
202	55
203	57
207	125
208	228
209	68
210	134
211	35
213	225
214	71
215	233
216	76
217	81
218	45
219	52
220	48
221	62
222	45
227	50
228	101
229	73
231	120
232	157
233	221
234	60
241	42
242	43
245	47
246	195
247	75
248	102
249	252
250	489
251	107
255	223
256	51
259	61
260	49
261	35
262	112
263	63
264	286
265	68
273	341
274	83
275	32
339	58
355	130
356	49
357	103
370	333
371	102
373	224
374	71
388	999
389	292
390	54
404	35
406	96
420	33
