Mass spectrum: 3alpha-Hydroxy-5alpha-cholan-24-oic Acid Methyl ester; EI-MS
Name: Allolithocholic Acid Methyl ester
Class: Natural Product; BILE ACID
Formula: C25H42O3
Exact mass: 390.31340
SMILES: CC(C1(C(CCC(OC)=O)C)[H])(C4)C(C([H])(C3)C(C4)([H])C(C([H])2C3)(CCC(O)C2)C)([H])CC1
InChI: 1/C25H42O3/c1-16(5-10-23(27)28-4)20-8-9-21-19-7-6-17-15-18(26)11-13-24(17,2)22(19)12-14-25(20,21)3/h16-22,26H,5-15H2,1-4H3/t16-,17+,18-,19+,20-,21+,22+,24+,25-/m1/s1
Instrument type: EI-MS
m/z	relative intensity
201	139
202	31
203	66
204	35
206	56
213	25
215	999
216	362
217	379
218	110
219	149
220	42
229	52
230	153
231	82
232	46
233	774
234	384
235	60
248	465
249	120
257	49
262	29
264	128
265	72
290	54
291	28
299	25
318	28
323	25
325	38
341	137
342	39
343	25
357	245
358	62
359	39
372	681
373	201
374	33
375	136
376	39
388	29
390	508
391	156
392	30
