Mass spectrum: 3beta-Hydroxy-5alpha-cholan-24-oic Acid Methyl ester; EI-MS
Class: Natural Product; BILE ACID
Formula: C25H42O3
Exact mass: 390.31340
SMILES: CC(C1(C(CCC(OC)=O)C)[H])(C4)C(C([H])(C3)C(C4)([H])C(C([H])2C3)(CCC(O)C2)C)([H])CC1
InChI: 1/C25H42O3/c1-16(5-10-23(27)28-4)20-8-9-21-19-7-6-17-15-18(26)11-13-24(17,2)22(19)12-14-25(20,21)3/h16-22,26H,5-15H2,1-4H3/t16-,17+,18+,19+,20-,21+,22+,24+,25-/m1/s1
Instrument type: EI-MS
m/z	relative intensity
201	128
202	36
203	41
204	29
205	27
206	57
210	32
215	837
216	335
217	328
218	58
219	109
220	32
229	36
230	138
231	82
232	68
233	999
234	483
235	83
247	23
248	518
249	108
250	23
257	46
264	179
265	102
266	28
278	33
290	43
299	28
317	28
318	23
325	24
333	40
341	83
342	29
355	22
357	184
358	61
359	46
361	24
372	350
373	65
375	135
376	33
388	35
390	891
391	246
392	37
