Mass spectrum: 3alpha,7beta,12alpha-Trihydroxy-5alpha-cholan-24-oic Acid Methyl ester; EI-MS
Name: Alloursocholic Acid Methyl ester
Class: Natural Product; BILE ACID
Formula: C25H42O5
Exact mass: 422.30322
SMILES: C(C1)C(CC(C4)(C(C)1C(C3)(C([H])(C(O)4)C([H])(C2(C)C3O)CCC(C(CCC(OC)=O)C)2[H])[H])[H])O
InChI: 1/C25H42O5/c1-14(5-8-22(29)30-4)17-6-7-18-23-19(13-21(28)25(17,18)3)24(2)10-9-16(26)11-15(24)12-20(23)27/h14-21,23,26-28H,5-13H2,1-4H3/t14-,15-,16-,17-,18+,19+,20+,21+,23+,24+,25-/m1/s1
Instrument type: EI-MS
m/z	relative intensity
201	55
203	23
205	75
206	28
207	60
208	228
209	53
211	56
213	52
215	46
217	26
219	31
221	23
227	43
229	47
231	37
232	104
233	45
234	26
244	32
245	33
247	52
248	22
249	72
250	27
253	224
254	67
255	20
257	45
258	57
259	29
260	21
261	62
262	51
265	59
266	23
271	999
272	232
273	39
287	24
288	74
289	955
290	205
291	29
299	39
313	20
339	21
354	32
355	56
357	34
368	26
371	42
372	51
373	49
386	223
387	74
404	25
