Mass spectrum: 3beta,12alpha-Dihydroxy-5alpha-cholan-24-oic Acid Methyl ester; EI-MS
Class: Natural Product; BILE ACID
Formula: C25H42O4
Exact mass: 406.30831
SMILES: C(C14[H])C(CCC(C(C2)([H])C(CC4)(C([H])(C3)C(C(C3)([H])C(CCC(OC)=O)C)(C)C2O)[H])1C)O
InChI: 1/C25H42O4/c1-15(5-10-23(28)29-4)19-8-9-20-18-7-6-16-13-17(26)11-12-24(16,2)21(18)14-22(27)25(19,20)3/h15-22,26-27H,5-14H2,1-4H3/t15-,16+,17+,18+,19-,20+,21+,22+,24+,25-/m1/s1
Instrument type: EI-MS
m/z	relative intensity
201	28
202	10
203	19
205	13
208	63
209	21
213	53
214	17
215	36
216	13
217	16
218	9
219	33
220	12
221	14
229	18
231	24
232	43
233	28
234	11
236	9
245	9
246	36
247	16
248	9
249	52
250	21
255	161
256	39
259	9
260	10
262	10
263	10
271	24
272	75
273	999
274	239
275	35
291	9
301	15
302	11
355	11
356	10
357	30
358	10
359	11
373	24
374	14
388	76
389	26
