Mass spectrum: 7alpha,12beta-Dihydroxy-5alpha-cholan-24-oic Acid Methyl ester; EI-MS
Class: Natural Product; BILE ACID
Formula: C25H42O4
Exact mass: 406.30831
SMILES: C(C(C4)(C(C([H])3C4)(C)C(CC([H])(C23[H])C(C([H])1CC2O)(CCCC1)C)O)[H])(CCC(OC)=O)C
InChI: 1/C25H42O4/c1-15(8-11-22(28)29-4)17-9-10-18-23-19(14-21(27)25(17,18)3)24(2)12-6-5-7-16(24)13-20(23)26/h15-21,23,26-27H,5-14H2,1-4H3/t15-,16-,17-,18+,19+,20-,21-,23+,24+,25-/m1/s1
Instrument type: EI-MS
m/z	relative intensity
201	29
202	29
203	87
204	18
207	17
208	23
213	28
215	34
216	41
217	67
218	20
228	34
229	50
230	24
231	72
232	28
233	24
234	24
241	15
242	19
243	14
246	23
247	15
249	87
250	24
254	19
255	999
256	172
257	23
261	15
262	89
272	15
273	354
274	85
283	41
284	15
291	17
297	26
315	16
341	15
355	51
356	27
357	69
358	23
359	118
360	39
370	170
371	51
373	18
388	51
