Mass spectrum: 3alpha-Hydroxy-5alpha-cholan-24-oic Acid Methyl ester; EI-MS
Name: Allolithocholic Acid Methyl ester
Class: Natural Product; BILE ACID
Formula: C25H42O3
Exact mass: 390.31340
SMILES: CC(C1(C(CCC(OC)=O)C)[H])(C4)C(C([H])(C3)C(C4)([H])C(C([H])2C3)(CCC(O)C2)C)([H])CC1
InChI: 1/C25H42O3/c1-16(5-10-23(27)28-4)20-8-9-21-19-7-6-17-15-18(26)11-13-24(17,2)22(19)12-14-25(20,21)3/h16-22,26H,5-15H2,1-4H3/t16-,17+,18-,19+,20-,21+,22+,24+,25-/m1/s1
Instrument type: EI-MS
m/z	relative intensity
201	121
202	44
203	48
204	31
205	28
206	55
215	999
216	356
217	399
218	122
219	152
220	41
229	41
230	150
231	68
232	49
233	896
234	430
235	84
248	573
249	138
257	67
262	34
263	28
264	155
265	70
290	55
291	26
317	28
318	41
323	25
325	42
341	133
342	37
343	26
357	267
358	91
359	39
372	847
373	245
374	37
375	164
376	38
390	612
391	185
392	35
