Mass spectrum: 7beta-Hydroxy-5alpha-cholan-24-oic Acid Methyl ester; EI-MS
Class: Natural Product; BILE ACID
Formula: C25H42O3
Exact mass: 390.31340
SMILES: CC(C1([H])2)(CCC([H])(C34C)C(C(O)CC([H])3CCCC4)2[H])C(C(CCC(OC)=O)C)([H])CC1
InChI: 1/C25H42O3/c1-16(8-11-22(27)28-4)18-9-10-19-23-20(12-14-25(18,19)3)24(2)13-6-5-7-17(24)15-21(23)26/h16-21,23,26H,5-15H2,1-4H3/t16-,17-,18-,19+,20+,21+,23+,24+,25-/m1/s1
Instrument type: EI-MS
m/z	relative intensity
201	76
202	64
203	102
204	80
205	67
206	31
208	159
209	47
210	56
215	258
216	209
217	422
218	123
219	30
220	22
229	76
230	292
231	96
232	24
233	212
234	376
235	76
243	157
244	62
248	272
249	112
250	106
251	24
256	20
257	569
258	118
262	114
263	71
264	21
276	21
285	27
299	28
323	21
341	84
342	29
343	23
357	319
358	135
359	30
372	999
373	271
374	46
390	86
391	20
