Mass spectrum: 7beta,12beta-Dihydroxy-5alpha-cholan-24-oic Acid Methyl ester; EI-MS
Class: Natural Product; BILE ACID
Formula: C25H42O4
Exact mass: 406.30831
SMILES: C(C(C4)(C(C([H])3C4)(C)C(CC([H])(C23[H])C(C([H])1CC2O)(CCCC1)C)O)[H])(CCC(OC)=O)C
InChI: 1/C25H42O4/c1-15(8-11-22(28)29-4)17-9-10-18-23-19(14-21(27)25(17,18)3)24(2)12-6-5-7-16(24)13-20(23)26/h15-21,23,26-27H,5-14H2,1-4H3/t15-,16-,17-,18+,19+,20+,21-,23+,24+,25-/m1/s1
Instrument type: EI-MS
m/z	relative intensity
201	50
202	32
203	96
204	17
205	15
206	19
207	19
208	109
209	15
213	34
214	12
215	39
216	159
217	68
218	19
219	14
220	16
227	23
228	29
229	56
230	17
231	45
232	13
233	45
234	35
235	19
241	24
242	20
243	24
245	19
246	25
247	21
248	21
249	218
250	68
254	36
255	568
256	139
257	29
259	12
260	24
261	25
263	15
271	13
272	42
273	999
274	242
275	31
283	64
284	18
289	19
291	34
297	12
301	19
315	19
317	18
323	15
331	13
341	13
355	43
356	31
357	71
358	20
359	29
370	257
371	76
372	16
373	14
386	12
388	57
389	12
404	12
