Mass spectrum: 3alpha,12alpha-Dihydroxy-5alpha-cholan-24-oic Acid Methyl ester; EI-MS
Name: Allodeoxycholic Acid Methyl ester
Name: beta-Lagodeoxycholic Acid Methyl ester
Class: Natural Product; BILE ACID
Formula: C25H42O4
Exact mass: 406.30831
SMILES: C(C14[H])C(CCC(C(C2)([H])C(CC4)(C([H])(C3)C(C(C3)([H])C(CCC(OC)=O)C)(C)C2O)[H])1C)O
InChI: 1/C25H42O4/c1-15(5-10-23(28)29-4)19-8-9-20-18-7-6-16-13-17(26)11-12-24(16,2)21(18)14-22(27)25(19,20)3/h15-22,26-27H,5-14H2,1-4H3/t15-,16+,17-,18+,19-,20+,21+,22+,24+,25-/m1/s1
Instrument type: EI-MS
m/z	relative intensity
201	33
202	10
203	20
205	12
208	62
209	18
213	49
214	17
215	38
216	17
217	13
219	28
220	10
227	9
229	22
230	9
231	23
232	26
233	30
234	19
246	26
247	12
248	9
249	38
250	17
255	240
256	52
260	10
262	12
263	12
271	20
272	63
273	999
274	224
275	31
283	10
291	10
297	12
301	12
302	10
355	12
356	15
357	44
358	12
359	10
370	22
373	24
374	11
388	92
389	30
