Mass spectrum: R,S-Hydroorotate; GC-EI-TOF-MS; RT:677.114 sec
Class: Natural Product
Formula: C5H6N2O4
Exact mass: 158.03276
SMILES: O=C(N1)CC(NC(=O)1)C(O)=O
InChI: InChI=1/C5H6N2O4/c8-3-1-2(4(9)10)6-5(11)7-3/h2H,1H2,(H,9,10)(H2,6,7,8,11)/t2-/m0/s1/f/h6-7,9H
Instrument type: GC-EI-TOF-MS
m/z	relative intensity
85	29
86	47
87	17
88	6
89	9
90	1
91	1
92	4
93	9
94	1
95	13
96	8
97	3
98	29
99	133
100	999
101	113
102	49
103	24
104	4
105	9
106	1
109	1
110	1
111	5
112	6
113	20
114	13
115	30
116	16
117	40
118	8
119	9
120	1
124	1
125	5
126	15
127	9
128	7
129	28
130	15
131	85
132	38
133	100
134	17
135	9
136	1
139	2
140	7
141	4
142	68
143	14
144	9
145	3
146	4
147	547
148	96
149	58
150	8
151	2
153	3
154	12
155	5
156	6
157	14
158	126
159	21
160	13
161	6
162	1
163	1
167	2
168	4
169	24
170	9
171	14
172	91
173	33
174	107
175	20
176	11
177	1
183	6
184	6
185	27
186	6
187	2
188	28
189	8
190	4
191	2
197	1
198	1
199	5
200	2
201	1
202	6
203	2
204	1
205	1
213	3
214	2
215	3
216	5
217	2
221	1
225	2
226	1
227	4
228	5
229	2
230	10
231	5
232	1
239	1
240	1
241	53
242	20
243	23
244	12
245	5
246	6
247	1
254	1
255	17
256	18
257	638
258	148
259	65
260	11
261	3
262	2
269	11
270	2
271	15
272	3
273	1
285	1
287	16
288	5
289	3
315	1
316	2
317	9
318	4
319	2
329	3
330	2
331	30
332	16
333	8
334	2
358	5
359	112
360	45
361	20
362	5
363	1
374	2
