Mass spectrum: Phenyl pyruvate; GC-EI-TOF-MS; RT:465.138 sec
Class: Natural Product
Formula: C9H8O3
Exact mass: 164.04734
SMILES: OC(=O)C(=O)Cc(c1)cccc1
InChI: InChI=1/C9H8O3/c10-8(9(11)12)6-7-4-2-1-3-5-7/h1-5H,6H2,(H,11,12)/f/h11H
Instrument type: GC-EI-TOF-MS
m/z	relative intensity
92	2
93	3
94	2
95	1
97	3
105	1
106	999
107	72
108	5
109	1
110	1
122	1
124	1
125	4
152	2
153	231
154	21
155	12
156	1
