Mass spectrum: L-Norleucine; GC-EI-TOF-MS; RT:450.744 sec
Class: Natural Product
Formula: C6H13NO2
Exact mass: 131.09463
SMILES: CCCC[C@H](N)C(O)=O
InChI: InChI=1/C6H13NO2/c1-2-3-4-5(7)6(8)9/h5H,2-4,7H2,1H3,(H,8,9)/t5-/m0/s1/f/h8H
Instrument type: GC-EI-TOF-MS
m/z	relative intensity
85	7
86	76
87	9
88	4
89	2
94	2
95	2
96	4
97	2
98	10
99	4
100	82
101	12
102	32
103	26
104	3
105	5
110	1
112	4
113	2
114	28
115	22
116	5
117	13
118	4
119	6
126	2
128	20
129	6
130	18
131	15
132	16
133	24
134	5
135	2
142	9
143	3
144	4
146	5
147	49
148	7
149	5
156	5
157	2
158	999
159	145
160	46
161	5
170	17
171	4
174	4
186	4
188	2
202	3
203	1
216	1
218	23
219	5
220	1
232	33
233	11
234	4
260	10
261	2
