Mass spectrum: R,S-Hydroorotate; GC-EI-TOF-MS; RT:671.723 sec
Class: Natural Product
Formula: C5H6N2O4
Exact mass: 158.03276
SMILES: O=C(N1)CC(NC(=O)1)C(O)=O
InChI: InChI=1/C5H6N2O4/c8-3-1-2(4(9)10)6-5(11)7-3/h2H,1H2,(H,9,10)(H2,6,7,8,11)/t2-/m0/s1/f/h6-7,9H
Instrument type: GC-EI-TOF-MS
m/z	relative intensity
85	32
86	26
87	26
88	2
92	1
93	3
95	7
96	18
98	16
99	143
100	240
101	41
102	18
103	5
105	2
113	4
115	7
116	17
117	15
122	1
125	1
126	7
128	11
129	12
131	34
133	42
134	1
142	43
143	6
144	16
147	448
148	76
149	30
158	1
168	3
169	48
170	10
172	3
173	1
174	16
184	28
185	999
186	158
187	38
191	3
234	1
241	4
252	2
257	11
258	6
259	89
260	26
261	8
287	58
288	12
304	2
315	1
325	1
367	2
370	1
383	1
414	2
436	3
443	1
453	1
