Mass spectrum: N-Acetyl-Serotonin; GC-EI-TOF-MS; RT:919.666 sec
Class: Natural Product
Formula: C12H14N2O2
Exact mass: 218.10553
SMILES: CC(=O)NCCc(c1)c(c2)c(ccc(O)2)n1
InChI: InChI=1/C12H14N2O2/c1-8(15)13-5-4-9-7-14-12-3-2-10(16)6-11(9)12/h2-3,6-7,14,16H,4-5H2,1H3,(H,13,15)/f/h13H
Instrument type: GC-EI-TOF-MS
m/z	relative intensity
85	7
86	43
87	12
88	9
89	14
90	3
91	5
92	2
93	4
94	2
95	2
96	1
97	2
98	2
99	2
100	22
101	20
102	295
103	44
104	16
105	6
106	1
107	3
108	2
109	1
113	4
114	11
115	44
116	23
117	18
118	3
119	11
120	2
121	6
122	2
123	1
126	1
127	8
128	28
129	54
130	23
131	24
132	8
133	23
134	4
135	6
139	1
140	3
141	7
142	20
143	13
144	139
145	32
146	29
147	54
148	13
149	7
150	1
151	1
154	12
155	6
156	27
157	9
158	7
159	12
160	17
161	8
162	2
163	2
165	1
167	2
168	3
169	7
170	15
171	6
172	19
173	9
174	18
175	10
176	2
177	1
179	2
181	1
182	4
183	3
184	13
185	10
186	41
187	13
188	23
189	8
190	6
191	2
192	1
193	3
194	1
196	4
197	3
198	9
199	7
200	31
201	12
202	113
203	28
204	11
205	4
206	1
207	2
210	5
211	3
212	4
213	3
214	13
215	13
216	52
217	19
218	27
219	7
220	2
221	1
227	1
228	6
229	4
230	27
231	21
232	15
233	14
234	4
235	2
238	1
241	1
242	2
243	2
244	9
245	3
246	5
247	1
248	3
255	2
256	3
257	1
258	6
259	3
260	23
261	8
262	3
263	1
270	1
271	4
272	6
273	4
274	9
275	4
276	4
277	2
286	4
287	5
288	43
289	33
290	999
291	287
292	111
293	26
294	5
295	1
299	1
300	1
301	4
302	35
303	288
304	126
305	48
306	14
307	4
317	1
318	2
319	3
320	1
331	3
332	1
345	3
346	1
347	1
361	1
362	2
378	5
379	1
418	2
419	23
420	12
421	3
422	1
433	6
434	37
435	23
436	10
437	2
