Mass spectrum: UDP-D-Glucuronate; GC-EI-TOF-MS; RT:871.777 sec
Class: Natural Product
Formula: C15H22N2O18P2
Exact mass: 580.03428
SMILES: O=C(C=3)NC(=O)N(C3)[C@H](O1)[C@H](O)[C@H](O)[C@@H](COP(O)(=O)OP(O)(=O)O[C@@H](O2)[C@H](O)[C@@H](O)[C@H](O)[C@@H](C(O)=O)2)1
InChI: InChI=1/C15H22N2O18P2/c18-5-1-2-17(15(26)16-5)12-9(22)6(19)4(32-12)3-31-36(27,28)35-37(29,30)34-14-10(23)7(20)8(21)11(33-14)13(24)25/h1-2,4,6-12,14,19-23H,3H2,(H,24,25)(H,27,28)(H,29,30)(H,16,18,26)/t4-,6-,7+,8+,9-,10-,11+,12-,14-/m1/s1/f/h16,24,27,29H
Instrument type: GC-EI-TOF-MS
m/z	relative intensity
85	64
86	8
87	33
88	6
89	37
90	6
91	32
92	6
93	15
94	6
95	97
96	26
97	32
98	32
99	99
100	15
101	168
102	32
103	115
104	12
105	35
106	9
107	49
108	2
109	32
111	75
112	4
113	57
114	17
115	81
116	127
117	106
118	13
119	65
120	6
121	62
122	5
123	197
124	17
125	39
126	16
127	69
128	13
129	406
130	62
131	159
132	26
133	589
134	104
135	193
136	20
137	118
138	13
139	28
140	19
141	39
142	58
143	392
144	58
145	52
146	5
147	999
148	181
149	172
150	18
151	55
152	10
153	84
154	19
155	55
156	62
157	52
158	6
159	20
161	8
163	10
164	2
165	12
166	5
167	43
168	24
169	343
170	54
171	42
172	6
173	8
175	17
176	1
177	25
179	113
180	13
181	103
182	19
183	51
184	24
185	44
186	20
187	8
188	4
189	41
190	9
191	56
192	9
193	61
194	18
195	120
196	21
197	117
198	11
199	15
201	4
202	3
203	21
204	75
205	22
206	5
207	196
208	30
209	24
210	7
211	639
212	133
213	218
214	26
215	31
216	7
217	430
218	96
219	49
220	4
221	17
223	4
224	4
225	101
226	24
227	241
228	43
229	38
230	20
231	64
232	17
233	45
234	9
235	2
240	1
241	28
242	15
243	206
244	37
245	80
246	12
247	50
248	10
249	8
253	58
254	10
255	20
256	2
257	89
258	22
259	35
260	6
261	2
265	4
266	3
267	98
268	15
269	53
270	12
271	20
272	2
273	1
274	8
275	23
276	2
277	8
278	2
279	3
280	2
281	25
282	15
283	8
284	1
285	245
286	60
287	72
288	19
289	4
291	2
292	1
293	21
294	5
295	17
297	13
298	6
299	237
300	79
301	51
302	11
303	2
305	24
306	8
307	10
308	6
309	14
313	2
314	3
315	106
316	25
317	58
318	12
319	6
320	1
321	46
322	7
323	8
324	5
326	1
327	1
328	4
330	2
331	13
332	4
333	11
334	4
335	17
336	4
337	144
338	37
339	13
340	6
341	26
342	7
343	5
344	5
346	1
349	10
350	1
351	7
352	1
354	2
356	3
357	50
358	25
359	64
360	20
361	5
363	1
364	1
365	9
366	5
367	8
368	7
369	18
370	9
373	6
374	6
378	1
380	1
381	9
382	1
383	14
384	5
385	30
386	13
387	8
388	1
390	1
391	1
394	2
395	34
396	11
397	9
398	6
399	3
401	1
404	1
410	8
411	10
412	4
414	2
421	4
428	2
431	1
438	6
439	101
440	33
441	18
442	2
445	1
452	3
462	2
463	5
489	1
