Mass spectrum: Acetyl CoA; GC-EI-TOF-MS; RT:421.986 sec
Class: Natural Product
Formula: C23H38N7O17P3S
Exact mass: 809.12577
SMILES: CC(=O)SCCNC(=O)CCNC(=O)C(O)C(C)(C)COP(O)(=O)OP(O)(=O)OCC(O1)C(OP(O)(O)=O)C(O)C1n(c2)c(n3)c(c(N)nc3)n2
InChI: InChI=1/C23H38N7O17P3S/c1-12(31)51-7-6-25-14(32)4-5-26-21(35)18(34)23(2,3)9-44-50(41,42)47-49(39,40)43-8-13-17(46-48(36,37)38)16(33)22(45-13)30-11-29-15-19(24)27-10-28-20(15)30/h10-11,13,16-18,22,33-34H,4-9H2,1-3H3,(H,25,32)(H,26,35)(H,39,40)(H,41,42)(H2,24,27,28)(H2,36,37,38)/f/h25-26,36-37,39,41H,24H2
Instrument type: GC-EI-TOF-MS
m/z	relative intensity
85	8
87	21
88	4
89	74
90	11
96	4
97	1
99	14
100	2
101	114
102	30
103	519
104	70
105	53
106	5
107	9
108	2
113	7
115	42
116	50
117	581
118	61
119	53
120	18
121	1
125	1
127	2
129	104
130	4
131	103
132	10
133	306
134	60
135	29
137	7
143	11
144	2
147	999
148	167
149	87
150	21
158	1
163	29
165	5
167	2
170	3
171	2
174	3
175	39
176	7
177	37
178	5
180	1
189	9
191	42
192	19
193	11
194	7
195	9
197	4
200	3
202	1
203	42
204	71
205	418
206	92
207	31
208	13
212	3
214	5
217	17
218	166
219	44
220	19
221	10
223	3
225	3
226	6
227	8
229	1
235	2
238	3
255	1
261	3
267	6
290	1
293	1
294	4
298	3
303	3
311	2
316	2
327	3
329	4
335	1
347	3
352	1
371	1
379	2
380	2
388	1
392	1
410	2
428	5
433	1
448	2
461	2
498	2
