Mass spectrum: DL-Methionine sulfoxide; GC-EI-TOF-MS; RT:713.440 sec
Class: Natural Product
Formula: C5H11NO3S
Exact mass: 165.04596
SMILES: NC(CCS(C)=O)C(O)=O
InChI: InChI=1/C5H11NO3S/c1-10(9)3-2-4(6)5(7)8/h4H,2-3,6H2,1H3,(H,7,8)/f/h7H
Instrument type: GC-EI-TOF-MS
m/z	relative intensity
85	9
86	13
87	7
88	21
89	5
90	46
91	20
92	2
93	1
95	2
96	4
97	29
98	15
99	5
100	128
101	19
102	54
103	17
104	6
105	6
106	3
108	2
110	26
111	1
112	32
113	3
114	40
115	19
116	11
117	17
118	13
119	10
120	2
121	2
126	8
127	3
128	999
129	142
130	64
131	21
132	18
133	28
134	27
135	5
136	1
137	1
138	1
139	1
140	316
141	22
142	2
143	1
144	14
145	2
146	12
147	97
148	18
149	13
150	2
151	1
156	2
158	1
159	2
160	31
161	6
162	4
163	2
172	9
173	3
174	17
175	2
176	4
184	11
185	1
186	3
188	14
189	2
190	2
200	2
202	49
203	12
204	8
205	1
206	3
208	1
213	2
216	1
217	1
218	43
219	11
220	5
221	1
229	4
230	1
232	3
248	20
249	6
250	4
262	1
276	7
277	1
278	18
279	4
280	3
300	6
301	187
302	39
303	21
304	1
375	3
376	1
377	1
418	1
