Mass spectrum: 7,8-Dihydroneopterin; GC-EI-TOF-MS; RT:964.383 sec
Class: Natural Product
Formula: C9H13N5O4
Exact mass: 255.09675
SMILES: OCC(O)C(O)C(C2)=NC(C(=O)1)=C(N2)NC(N)=N1
InChI: InChI=1/C9H13N5O4/c10-9-13-7-5(8(18)14-9)12-3(1-11-7)6(17)4(16)2-15/h4,6,15-17H,1-2H2,(H4,10,11,13,14,18)/t4-,6+/m1/s1/f/h11,13H,10H2
Instrument type: GC-EI-TOF-MS
m/z	relative intensity
85	34
86	27
87	28
88	9
89	153
90	13
91	9
92	2
93	11
94	4
95	3
96	10
98	25
99	155
100	75
101	86
102	18
103	145
104	21
105	21
106	13
108	3
109	7
110	15
111	9
112	6
113	9
114	7
115	26
116	13
117	438
118	58
119	47
120	2
121	4
123	5
124	19
125	25
126	12
127	9
129	6
130	29
131	149
132	48
133	224
134	38
135	21
136	7
137	2
138	15
139	3
140	5
141	13
142	9
143	11
144	9
145	22
146	7
147	999
148	175
149	133
150	17
151	14
152	7
153	16
154	10
155	14
156	7
157	27
158	45
159	15
160	3
162	3
163	4
164	12
165	11
166	10
167	8
168	6
169	6
170	2
171	155
172	29
173	31
174	5
175	15
176	3
177	12
178	27
179	13
180	15
181	2
182	8
183	1
184	1
185	4
186	1
187	4
188	7
189	23
190	13
191	11
192	17
193	12
194	55
195	12
197	8
198	9
201	1
203	9
204	34
205	160
206	41
207	22
208	12
209	8
210	6
211	5
213	4
214	1
215	4
216	15
217	12
218	9
219	2
220	8
221	9
222	75
223	14
224	4
225	3
227	1
228	7
230	14
231	14
232	12
234	4
235	2
236	6
237	16
238	3
242	3
244	18
245	5
246	14
247	10
248	14
249	10
250	5
251	5
252	4
254	2
256	6
258	1
259	1
262	7
263	7
264	8
265	7
276	5
277	7
278	9
279	6
280	5
281	3
283	2
288	2
289	3
290	37
291	17
292	10
293	7
302	2
304	17
305	29
306	18
307	5
311	1
315	5
316	1
317	3
318	71
319	34
320	125
321	59
322	20
323	7
325	3
327	2
330	5
332	5
333	5
334	14
335	27
336	15
337	5
344	4
346	3
348	8
350	1
361	10
362	7
363	9
364	12
365	6
366	4
377	7
378	41
379	34
380	24
381	10
382	5
391	5
392	29
393	55
394	51
395	23
398	3
405	2
406	29
407	71
408	375
409	785
410	360
411	162
412	47
413	10
422	3
424	1
434	2
435	1
436	1
437	1
438	3
443	1
451	4
452	3
469	1
479	2
480	12
481	34
482	28
483	8
484	3
494	1
