Mass spectrum: 7,8-Dihydroneopterin; GC-EI-TOF-MS; RT:967.933 sec
Class: Natural Product
Formula: C9H13N5O4
Exact mass: 255.09675
SMILES: OCC(O)C(O)C(C2)=NC(C(=O)1)=C(N2)NC(N)=N1
InChI: InChI=1/C9H13N5O4/c10-9-13-7-5(8(18)14-9)12-3(1-11-7)6(17)4(16)2-15/h4,6,15-17H,1-2H2,(H4,10,11,13,14,18)/t4-,6+/m1/s1/f/h11,13H,10H2
Instrument type: GC-EI-TOF-MS
m/z	relative intensity
85	34
86	29
87	29
88	15
89	142
90	15
91	12
92	7
93	8
94	11
95	10
96	6
97	9
98	30
99	161
100	78
101	74
102	19
103	136
104	20
105	23
106	13
107	6
108	4
109	9
110	18
111	19
112	8
113	16
114	9
115	32
116	19
117	428
118	55
119	51
120	10
121	6
122	8
123	10
124	22
125	24
126	21
127	14
128	10
129	14
130	31
131	143
132	53
133	217
134	35
135	27
136	13
137	9
138	13
139	11
140	14
141	16
142	10
143	11
144	10
145	15
146	13
147	999
148	169
149	117
150	25
151	19
152	11
153	22
154	11
155	16
156	11
157	38
158	49
159	16
160	9
161	8
162	3
163	11
164	19
165	14
166	10
167	17
168	9
169	7
170	4
171	153
172	44
173	29
174	11
175	13
176	10
177	16
178	28
179	12
180	14
181	11
182	14
183	5
184	5
185	5
186	3
187	10
188	4
189	23
190	11
191	14
192	28
193	15
194	54
195	20
196	6
197	5
198	8
199	4
200	3
201	3
202	5
203	7
204	36
205	156
206	40
207	27
208	10
209	13
210	6
211	3
212	4
214	1
215	4
216	16
217	13
218	10
219	10
220	15
221	15
222	72
223	20
224	11
225	4
226	3
228	4
229	5
230	20
231	17
232	15
233	4
234	8
235	6
236	9
237	10
238	6
239	3
240	2
242	4
243	1
244	25
245	11
246	18
247	8
248	15
249	10
250	10
251	12
252	8
253	2
254	2
255	1
256	3
257	2
258	6
259	4
260	6
261	5
262	8
263	10
264	10
265	9
266	9
267	6
268	3
270	2
272	2
273	1
274	7
275	3
276	6
277	13
278	8
279	9
280	2
281	2
288	5
289	8
290	37
291	21
292	15
293	6
294	3
299	1
300	1
302	5
303	10
304	23
305	33
306	23
307	11
308	4
315	2
316	10
317	7
318	71
319	43
320	113
321	59
322	24
323	8
324	1
328	1
330	9
331	5
332	15
333	10
334	18
335	23
336	18
337	8
338	4
346	7
347	4
348	6
349	4
350	2
351	2
352	1
360	2
361	1
362	16
363	17
364	16
365	11
366	5
371	1
372	1
373	1
374	1
375	1
376	3
377	10
378	37
379	38
380	29
381	12
382	3
383	1
387	2
389	1
390	3
391	7
392	34
393	54
394	48
395	26
396	11
397	3
398	1
402	4
404	5
405	7
406	34
407	68
408	376
409	798
410	364
411	154
412	48
413	13
414	3
418	3
420	2
421	6
422	4
423	2
425	1
433	3
434	10
435	5
436	5
437	1
442	1
448	1
451	2
452	1
453	2
458	1
461	1
479	1
480	17
481	39
482	25
483	10
484	2
486	2
494	2
495	1
496	2
