Mass spectrum: DL-Hexanoylcarnitine; GC-EI-TOF-MS; RT:299.211 sec
Class: Natural Product
Formula: C13H26NO4
Exact mass: 260.18618
SMILES: CCCCCC(=O)OC(CC(O)=O)C[N+1](C)(C)C
InChI: InChI=1/C13H25NO4/c1-5-6-7-8-13(17)18-11(9-12(15)16)10-14(2,3)4/h11H,5-10H2,1-4H3/p+1/fC13H26NO4/h15H/q+1
Instrument type: GC-EI-TOF-MS
m/z	relative intensity
85	18
86	23
87	22
88	38
89	22
90	8
91	7
92	1
93	4
94	1
95	2
96	2
97	18
98	20
99	43
100	7
101	86
102	10
103	10
104	1
105	22
106	2
107	1
111	3
113	5
114	1
115	13
116	187
117	885
118	95
119	41
120	3
125	1
126	1
127	3
128	2
129	195
130	32
131	381
132	281
133	43
134	11
135	1
137	1
142	1
143	29
144	6
145	94
146	14
147	5
155	15
156	5
157	2
159	25
160	5
161	2
171	2
172	1
173	999
174	140
175	46
176	4
187	1
188	9
189	1
