Mass spectrum: Melatonin; GC-EI-TOF-MS; RT:912.026 sec
Class: Natural Product
Formula: C13H16N2O2
Exact mass: 232.12118
SMILES: CC(=O)NCCc(c1)c(c2)c(ccc(OC)2)n1
InChI: InChI=1/C13H16N2O2/c1-9(16)14-6-5-10-8-15-13-4-3-11(17-2)7-12(10)13/h3-4,7-8,15H,5-6H2,1-2H3,(H,14,16)/f/h14H
Instrument type: GC-EI-TOF-MS
m/z	relative intensity
85	4
86	34
87	7
88	5
89	31
90	6
91	5
92	1
93	1
95	1
99	2
100	8
101	10
102	171
103	39
104	7
105	4
106	1
107	1
113	1
114	5
115	29
116	30
117	18
118	1
119	1
127	1
128	11
129	48
130	34
131	17
132	4
133	3
134	1
141	1
142	10
143	11
144	114
145	32
146	10
147	21
148	4
149	3
156	8
157	4
158	23
159	22
160	24
161	4
162	2
169	1
170	6
171	3
172	16
173	19
174	14
175	9
176	1
184	5
185	4
186	12
187	8
188	6
189	3
197	1
198	1
199	2
200	19
201	7
202	31
203	9
204	1
213	4
214	6
215	8
216	10
217	8
218	6
219	2
228	3
229	6
230	32
231	16
232	999
233	208
234	64
235	7
244	11
245	261
246	103
247	26
248	5
285	1
287	2
304	3
318	1
324	1
361	18
362	5
375	1
376	35
377	14
378	4
421	1
