Mass spectrum: Allantoin; GC-EI-TOF-MS; RT:800.093 sec
Class: Natural Product
Formula: C4H6N4O3
Exact mass: 158.04399
SMILES: NC(=O)NC(N1)C(=O)NC(=O)1
InChI: InChI=1/C4H6N4O3/c5-3(10)6-1-2(9)8-4(11)7-1/h1H,(H3,5,6,10)(H2,7,8,9,11)/f/h6-8H,5H2
Instrument type: GC-EI-TOF-MS
m/z	relative intensity
85	62
86	137
87	44
88	32
89	31
93	15
95	6
96	8
98	3
99	142
100	999
101	424
102	151
103	17
105	13
109	1
111	9
114	9
115	135
116	283
117	183
118	27
125	3
126	6
128	4
129	149
130	81
131	70
132	137
133	69
134	8
135	4
140	9
142	21
143	44
144	24
145	9
146	2
147	361
148	39
149	28
152	6
153	11
157	60
158	38
159	13
160	4
171	55
172	60
173	190
174	132
175	44
176	21
185	6
186	31
187	18
188	32
189	613
190	128
191	48
199	1
200	22
201	7
204	5
212	5
215	2
216	2
217	3
225	8
227	14
236	4
238	3
242	14
243	87
244	30
245	4
247	6
249	17
250	4
254	8
258	32
259	681
260	185
261	62
262	1
274	11
279	4
281	3
285	4
286	15
288	5
302	6
314	16
317	3
320	6
331	4
341	1
347	8
351	6
352	3
353	1
355	6
359	86
360	22
361	3
368	6
373	9
374	52
388	7
396	6
397	7
404	5
408	4
409	1
410	1
411	11
417	1
418	13
423	3
432	8
449	4
453	3
473	1
476	7
492	10
