Mass spectrum: 7,8-Dihydroneopterin; GC-EI-TOF-MS; RT:1017.292 sec
Class: Natural Product
Formula: C9H13N5O4
Exact mass: 255.09675
SMILES: OCC(O)C(O)C(C2)=NC(C(=O)1)=C(N2)NC(N)=N1
InChI: InChI=1/C9H13N5O4/c10-9-13-7-5(8(18)14-9)12-3(1-11-7)6(17)4(16)2-15/h4,6,15-17H,1-2H2,(H4,10,11,13,14,18)/t4-,6+/m1/s1/f/h11,13H,10H2
Instrument type: GC-EI-TOF-MS
m/z	relative intensity
85	145
86	174
87	98
88	45
89	999
90	120
91	117
92	50
93	70
94	65
95	69
96	51
97	63
98	323
99	888
100	362
101	163
102	82
103	286
104	44
105	74
106	38
107	26
108	28
109	26
110	62
111	63
112	49
113	126
114	99
115	93
116	61
117	106
118	56
119	119
120	77
121	42
122	67
123	82
124	156
125	116
126	120
127	67
128	104
129	32
130	75
131	249
132	148
133	417
134	88
135	62
136	57
137	45
138	49
139	81
140	84
141	77
142	44
143	51
144	35
145	42
146	69
147	400
148	139
149	102
150	104
151	115
152	108
153	74
154	43
155	63
156	49
157	150
158	156
159	58
160	21
161	16
162	19
163	15
164	36
165	81
166	79
167	56
168	39
169	23
170	27
171	450
172	131
173	153
174	34
175	74
176	36
177	125
178	59
179	67
180	60
181	51
182	39
183	29
184	24
185	15
186	6
187	49
188	16
189	34
190	32
191	65
192	75
193	69
194	48
195	39
196	27
197	24
198	35
199	11
200	3
201	2
202	44
203	48
204	55
205	120
206	51
207	38
208	37
209	17
210	18
211	17
212	2
213	1
215	7
216	19
217	33
218	99
219	112
220	118
221	89
222	65
223	29
224	12
225	3
226	11
227	11
228	5
229	21
230	22
231	61
232	30
233	41
234	61
235	70
236	49
237	58
238	44
239	14
240	2
242	16
243	29
244	33
245	85
246	52
247	42
248	30
249	27
250	31
251	39
252	34
253	18
254	6
255	9
256	14
257	11
258	11
259	22
260	35
261	24
262	29
263	34
264	24
265	50
266	15
267	18
268	11
269	1
270	1
271	17
272	34
273	94
274	28
275	14
276	49
277	50
278	167
279	55
280	30
281	11
282	9
287	9
288	12
289	38
290	62
291	51
292	232
293	159
294	91
295	31
300	4
301	8
302	14
303	40
304	32
305	33
306	53
307	150
308	173
309	124
310	49
311	24
313	6
314	2
315	18
316	35
317	177
318	147
319	221
320	87
321	30
322	14
323	6
324	1
325	3
326	3
328	6
329	14
330	26
331	38
332	61
333	286
334	234
335	112
336	38
337	6
338	3
339	2
342	7
344	22
345	215
346	116
347	68
348	63
349	37
350	15
352	2
354	4
355	1
358	1
359	15
360	35
361	259
362	140
363	57
364	17
365	11
373	5
375	4
376	3
377	26
378	22
379	12
381	2
387	1
390	6
391	3
392	19
393	17
394	16
395	9
397	3
398	5
400	1
401	2
402	3
404	2
405	28
406	25
407	18
408	12
409	22
410	13
411	8
412	3
417	4
419	17
421	7
422	15
423	15
424	2
427	8
430	5
434	6
435	43
436	80
437	53
438	24
440	10
446	3
447	3
448	7
449	24
450	202
451	643
452	447
453	232
454	83
455	17
456	2
458	3
465	5
466	29
467	120
468	72
469	36
470	9
471	9
476	2
478	1
480	3
481	53
482	193
483	108
484	49
485	22
497	1
500	4
