Mass spectrum: D-Glucarate; GC-EI-TOF-MS; RT:756.889 sec
Class: Natural Product
Formula: C6H10O8
Exact mass: 210.03757
SMILES: OC(=O)C(O)C(O)C(O)C(O)C(O)=O
InChI: InChI=1/C6H10O8/c7-1(3(9)5(11)12)2(8)4(10)6(13)14/h1-4,7-10H,(H,11,12)(H,13,14)/t1-,2-,3-,4+/m0/s1/f/h11,13H
Instrument type: GC-EI-TOF-MS
m/z	relative intensity
85	31
86	8
87	27
88	6
89	14
91	3
92	4
93	3
95	21
96	1
97	3
98	1
99	34
100	8
101	52
102	169
103	135
104	19
105	16
106	3
109	1
111	23
112	9
113	32
114	3
115	31
116	25
117	81
118	9
119	32
120	5
121	3
124	1
125	4
126	9
127	41
128	9
129	179
130	138
131	144
132	27
133	316
134	42
135	37
136	3
137	2
138	2
139	1
140	2
141	58
142	9
143	396
144	55
145	29
146	4
147	999
148	167
149	140
150	16
151	8
152	1
153	1
154	9
155	5
156	11
157	33
158	4
159	13
160	3
161	8
162	1
163	4
164	1
165	2
166	1
169	60
170	10
171	18
172	4
173	13
175	8
176	2
177	36
178	6
179	3
180	1
183	8
184	5
185	14
186	3
187	13
188	4
189	140
190	29
191	94
192	18
193	16
194	1
196	1
197	1
199	3
200	2
201	18
202	4
203	19
204	182
205	51
206	16
207	24
208	3
209	3
210	1
211	8
212	2
213	1
214	1
215	28
216	14
217	344
218	84
219	66
220	17
221	58
222	13
223	6
227	1
228	2
229	17
230	18
231	26
232	7
233	19
234	6
235	2
237	1
238	1
240	1
241	2
243	14
244	46
245	32
246	12
247	4
248	1
249	1
250	1
256	1
257	59
258	19
259	12
260	3
261	4
262	1
265	3
271	1
272	2
273	9
274	2
275	6
277	2
278	1
284	1
285	75
286	25
287	9
289	1
290	2
291	21
292	76
293	36
294	15
295	1
297	1
302	1
303	8
304	11
305	61
306	34
307	13
308	2
309	1
312	1
313	1
318	16
319	26
320	15
321	8
322	1
323	1
324	1
325	1
329	1
330	1
331	38
332	29
333	70
334	56
335	29
336	12
337	4
339	1
345	6
346	9
347	69
348	50
349	16
350	7
351	4
360	1
361	2
362	8
363	10
364	5
365	2
373	4
374	5
375	30
376	19
377	9
378	6
379	6
380	6
381	2
382	1
389	1
390	7
391	4
392	1
393	2
395	1
409	2
420	1
421	1
423	1
426	1
437	2
438	4
446	2
447	1
448	1
464	2
465	11
466	12
467	8
468	1
473	1
478	1
479	11
480	43
481	41
482	16
483	6
496	1
