Mass spectrum: Phenyl pyruvate; GC-EI-TOF-MS; RT:431.028 sec
Class: Natural Product
Formula: C9H8O3
Exact mass: 164.04734
SMILES: OC(=O)C(=O)Cc(c1)cccc1
InChI: InChI=1/C9H8O3/c10-8(9(11)12)6-7-4-2-1-3-5-7/h1-5H,6H2,(H,11,12)/f/h11H
Instrument type: GC-EI-TOF-MS
m/z	relative intensity
85	3
86	1
90	49
91	4
92	1
93	7
94	5
95	3
96	2
97	1
99	1
105	9
106	533
107	41
108	6
109	8
110	7
111	1
119	2
120	10
121	2
122	9
123	5
132	1
134	2
135	3
136	492
137	68
138	20
150	4
151	2
152	1
162	1
164	3
165	1
166	1
179	4
180	999
181	136
182	43
183	4
186	2
194	4
195	36
196	5
197	1
