Mass spectrum: Argininosuccinate; GC-EI-TOF-MS; RT:998.548 sec
Class: Natural Product
Formula: C10H18N4O6
Exact mass: 290.12263
SMILES: OC(=O)CC(C(O)=O)NC(=N)NCCCC(N)C(O)=O
InChI: InChI=1/C10H18N4O6/c11-5(8(17)18)2-1-3-13-10(12)14-6(9(19)20)4-7(15)16/h5-6H,1-4,11H2,(H,15,16)(H,17,18)(H,19,20)(H3,12,13,14)/t5-,6-/m0/s1/f/h12-15,17,19H
Instrument type: GC-EI-TOF-MS
m/z	relative intensity
85	57
86	61
87	28
88	15
89	13
90	14
91	5
92	11
93	13
94	37
95	27
96	52
97	22
98	78
99	156
100	416
101	86
102	59
103	61
104	11
105	10
106	5
107	9
108	6
109	7
110	25
111	22
112	38
113	49
114	68
115	165
116	65
117	109
118	21
119	23
120	9
121	20
122	85
123	21
124	21
125	66
126	104
127	62
128	162
129	64
130	97
131	110
132	75
133	143
134	30
135	18
136	9
137	12
138	13
139	57
140	100
141	170
142	999
143	174
144	80
145	23
146	29
147	822
148	148
149	116
150	33
151	11
152	32
153	20
154	91
155	53
156	51
157	100
158	52
159	27
160	19
161	12
162	5
163	16
164	8
165	4
166	19
167	36
168	56
169	32
170	160
171	246
172	118
173	64
174	54
175	15
176	12
177	5
178	5
179	4
180	12
181	13
182	20
183	13
184	30
185	24
186	30
187	73
188	44
189	39
190	52
191	41
192	20
193	11
194	22
195	50
196	50
197	34
198	22
199	14
200	16
201	10
202	15
203	19
204	23
205	20
206	9
207	8
208	40
209	16
210	69
211	21
212	56
213	35
214	27
215	21
216	72
217	25
218	58
219	16
220	11
221	18
222	12
223	16
224	13
225	9
226	110
227	37
228	41
229	16
230	25
231	14
232	25
233	8
234	7
235	7
236	23
237	9
238	13
239	24
240	48
241	23
242	114
243	69
244	57
245	24
246	16
247	6
248	4
249	1
250	19
251	12
252	5
253	5
254	30
255	12
256	68
257	28
258	52
259	20
260	31
261	11
262	4
263	8
264	3
265	2
266	9
267	8
268	14
269	10
270	22
271	7
272	5
273	3
274	1
279	2
280	3
281	3
282	13
283	9
284	30
285	12
286	17
287	10
288	10
289	4
290	1
291	2
293	1
294	1
295	5
296	5
297	6
298	6
299	4
300	6
301	4
302	5
303	1
304	2
307	1
308	1
309	4
310	5
311	55
312	21
313	13
314	8
315	11
316	12
317	4
318	3
319	2
320	1
323	4
324	8
325	8
326	71
327	38
328	29
329	13
330	12
331	5
332	4
333	1
334	2
335	27
336	10
337	7
338	9
339	6
340	4
341	3
342	4
343	2
344	6
345	2
352	1
353	5
354	16
355	8
356	10
357	8
358	41
359	17
360	10
361	3
369	2
370	1
371	2
372	5
373	18
374	114
375	55
376	23
377	7
378	1
380	1
381	1
384	2
385	4
386	4
387	5
388	4
389	2
390	1
391	1
395	1
398	2
399	2
400	9
401	31
402	14
403	6
404	1
412	1
413	21
414	110
415	66
416	30
417	9
418	2
424	9
425	74
426	80
427	52
428	26
429	13
430	6
431	4
432	4
433	3
441	1
442	1
443	2
444	5
445	41
446	206
447	140
448	96
449	53
450	19
451	5
465	1
470	1
471	1
473	1
476	1
478	1
480	1
482	1
484	1
487	1
488	1
489	1
491	1
492	1
493	1
499	2
500	1
