Mass spectrum: Allantoic acid; GC-EI-TOF-MS; RT:406.875 sec
Class: Natural Product
Formula: C4H8N4O4
Exact mass: 176.05455
SMILES: NC(=O)NC(NC(N)=O)C(O)=O
InChI: InChI=1/C4H8N4O4/c5-3(11)7-1(2(9)10)8-4(6)12/h1H,(H,9,10)(H3,5,7,11)(H3,6,8,12)/f/h7-9H,5-6H2
Instrument type: GC-EI-TOF-MS
m/z	relative intensity
85	33
86	30
87	90
88	13
89	5
90	7
93	1
96	3
97	4
98	5
99	181
100	151
101	39
102	24
103	15
104	1
105	6
106	1
111	11
112	1
113	17
114	22
115	34
116	21
117	28
118	6
119	4
125	1
126	1
127	2
129	3
130	80
131	71
132	56
133	36
134	7
135	1
139	3
141	9
143	3
146	69
147	999
148	169
149	81
150	6
151	1
155	19
156	3
157	25
158	4
159	3
170	1
171	447
172	80
173	83
174	15
175	4
181	1
185	1
186	28
187	5
188	2
189	425
190	78
191	37
192	2
204	24
205	2
206	1
391	1
450	1
