Mass spectrum: DL-Homocysteine; GC-EI-TOF-MS; RT:872.179 sec
Class: Natural Product
Formula: C4H9NO2S
Exact mass: 135.03540
SMILES: SCCC(N)C(O)=O
InChI: InChI=1/C4H9NO2S/c5-3(1-2-8)4(6)7/h3,8H,1-2,5H2,(H,6,7)/f/h6H
Instrument type: GC-EI-TOF-MS
m/z	relative intensity
85	12
86	11
87	10
88	20
89	5
90	3
91	8
92	1
93	2
96	1
97	2
98	8
99	9
100	88
101	16
102	8
103	17
104	2
105	4
106	1
112	8
113	4
114	35
115	16
116	8
117	21
118	9
119	7
120	1
126	7
127	3
128	999
129	172
130	62
131	23
132	17
133	38
134	7
135	5
140	1
142	5
143	3
144	3
145	3
146	10
147	144
148	25
149	25
150	2
151	1
156	5
157	2
158	2
159	4
160	53
161	15
162	10
163	3
164	1
170	1
171	7
172	17
173	6
174	6
175	2
176	1
186	1
187	1
188	47
189	9
190	6
191	2
200	1
201	1
202	53
203	18
204	7
205	1
206	1
216	3
217	6
218	75
219	30
220	9
221	3
228	6
229	1
230	4
231	1
232	11
233	2
234	1
236	1
244	3
245	33
246	9
247	5
248	1
259	1
260	1
262	2
263	1
264	1
277	1
278	40
279	11
280	5
281	1
316	1
319	1
333	1
334	3
335	1
336	1
421	1
422	12
423	6
424	3
