Mass spectrum: D-(+)-Glucono-1,5-lactone; GC-EI-TOF-MS; RT:720.543 sec
Class: Natural Product
Formula: C6H10O6
Exact mass: 178.04774
SMILES: OCC(O1)C(O)C(O)C(O)C(=O)1
InChI: InChI=1/C6H10O6/c7-1-2-3(8)4(9)5(10)6(11)12-2/h2-5,7-10H,1H2/t2-,3-,4+,5-/m1/s1
Instrument type: GC-EI-TOF-MS
m/z	relative intensity
85	30
86	7
87	33
88	14
89	102
90	15
91	6
92	1
95	7
96	2
97	35
98	6
99	42
100	6
101	105
102	107
103	335
104	40
105	28
106	3
107	4
111	25
112	3
113	42
114	8
115	46
116	31
117	252
118	27
119	50
120	3
121	1
125	6
127	19
128	6
129	999
130	207
131	157
132	29
133	310
134	49
135	39
136	4
137	2
139	2
140	4
141	16
142	9
143	148
144	19
145	33
146	5
147	891
148	147
149	136
150	15
151	18
152	2
153	8
154	2
155	32
156	5
157	239
158	35
159	21
161	15
162	2
163	18
164	1
165	1
168	1
169	125
170	16
171	36
172	2
173	14
175	17
176	5
177	24
178	3
179	2
181	1
185	7
187	3
188	1
189	172
190	47
191	93
192	16
193	9
197	20
198	2
199	6
201	38
202	13
203	42
204	143
205	47
206	17
207	16
210	3
213	1
215	35
216	7
217	172
218	48
219	71
220	276
221	81
222	30
223	5
225	2
227	6
228	1
229	152
230	52
231	46
232	12
233	5
234	2
242	5
243	88
244	22
245	30
246	7
247	3
248	1
254	1
255	1
257	21
258	12
259	22
260	4
265	2
269	1
271	33
272	4
273	6
285	1
287	4
291	9
292	4
293	5
303	2
305	15
306	5
307	3
316	1
317	12
318	7
319	187
320	67
321	29
322	4
326	1
331	22
332	7
333	38
334	14
335	17
336	2
337	2
361	14
362	4
363	2
364	1
376	1
377	2
378	2
411	1
419	1
451	4
452	3
453	1
464	1
466	2
467	4
485	1
500	1
