Mass spectrum: Oxalacetic acid; GC-EI-TOF-MS; RT:281.168 sec
Class: Natural Product
Formula: C4H4O5
Exact mass: 132.00587
SMILES: OC(=O)CC(=O)C(O)=O
InChI: InChI=1/C4H4O5/c5-2(4(8)9)1-3(6)7/h1H2,(H,6,7)(H,8,9)/f/h6,8H
Instrument type: GC-EI-TOF-MS
m/z	relative intensity
85	15
86	21
87	8
88	5
89	647
90	62
91	37
92	2
93	2
96	1
98	12
99	224
100	187
101	34
102	9
103	16
104	1
113	2
114	33
115	322
116	44
117	84
118	10
119	2
126	1
128	2
130	9
131	2
132	1
142	1
143	20
144	5
145	1
146	2
157	1
158	73
159	26
160	4
161	1
174	999
175	119
176	47
177	3
189	31
190	3
191	1
195	1
320	1
329	1
359	1
367	1
471	1
