Mass spectrum: Adenylosuccinic acid; GC-EI-TOF-MS; RT:965.854 sec
Class: Natural Product
Formula: C14H18N5O11P
Exact mass: 463.07404
SMILES: OC(=O)CC(C(O)=O)Nc(n3)c(n2)c(nc3)n(c2)C(O1)C(O)C(O)C(COP(O)(O)=O)1
InChI: InChI=1/C14H18N5O11P/c20-7(21)1-5(14(24)25)18-11-8-12(16-3-15-11)19(4-17-8)13-10(23)9(22)6(30-13)2-29-31(26,27)28/h3-6,9-10,13,22-23H,1-2H2,(H,20,21)(H,24,25)(H,15,16,18)(H2,26,27,28)/t5?,6?,9?,10?,13-/m0/s1/f/h18,20,24,26-27H
Instrument type: GC-EI-TOF-MS
m/z	relative intensity
85	47
86	20
87	1
88	9
89	3
90	1
92	11
93	20
94	7
95	21
96	6
97	3
98	29
99	40
100	32
101	38
102	2
103	6
105	4
107	5
108	7
109	8
110	6
111	21
113	1
115	11
116	7
117	23
118	9
119	58
120	11
121	3
122	8
123	31
124	3
125	3
126	1
128	5
129	44
131	16
132	12
133	50
134	4
135	10
136	3
137	9
138	17
139	2
142	4
143	5
145	2
147	162
148	24
149	27
150	14
151	6
157	2
159	22
160	33
161	8
162	3
164	20
165	28
166	5
167	4
168	4
176	11
177	11
178	5
179	2
181	1
188	21
189	2
190	9
191	113
192	170
193	128
194	19
195	5
198	5
200	1
202	1
203	1
204	7
205	4
206	12
207	30
208	7
216	9
217	4
218	41
219	8
220	6
221	1
231	25
232	188
233	31
234	29
236	4
243	4
244	2
245	73
246	14
247	2
248	5
258	11
259	25
260	999
261	233
262	64
263	12
264	76
265	24
266	26
267	3
276	8
278	3
280	21
281	1
286	2
287	4
290	19
291	4
292	14
297	3
303	5
305	4
306	104
307	33
308	15
309	2
310	2
320	7
321	1
326	3
330	1
333	1
334	6
335	6
336	4
349	11
350	252
351	90
352	24
356	1
369	1
377	11
378	10
379	5
380	9
394	2
400	3
421	1
452	17
453	6
460	1
467	33
468	17
469	5
472	1
