Mass spectrum: D-Hydro-Orotate; GC-EI-TOF-MS; RT:677.173 sec
Class: Natural Product
Formula: C5H6N2O4
Exact mass: 158.03276
SMILES: O=C(N1)CC(NC(=O)1)C(O)=O
InChI: InChI=1/C5H6N2O4/c8-3-1-2(4(9)10)6-5(11)7-3/h2H,1H2,(H,9,10)(H2,6,7,8,11)/t2-/m1/s1/f/h6-7,9H
Instrument type: GC-EI-TOF-MS
m/z	relative intensity
85	30
86	49
87	18
88	5
89	9
91	1
92	2
93	7
94	1
95	13
96	8
97	3
98	28
99	132
100	999
101	113
102	50
103	24
104	3
105	9
106	1
109	1
110	1
111	4
112	6
113	21
114	13
115	32
116	16
117	43
118	8
119	10
120	1
124	1
125	5
126	16
127	10
128	6
129	30
130	15
131	91
132	41
133	108
134	17
135	10
136	1
139	2
140	7
141	3
142	73
143	15
144	9
145	3
146	4
147	582
148	101
149	62
150	8
151	2
153	3
154	13
155	4
156	6
157	16
158	137
159	23
160	13
161	7
162	1
167	2
168	4
169	25
170	9
171	15
172	98
173	35
174	116
175	21
176	12
177	1
183	5
184	6
185	25
186	5
187	2
188	31
189	8
190	4
191	1
197	1
198	1
199	5
200	2
201	1
202	6
203	2
204	1
205	1
213	3
214	2
215	3
216	4
217	2
221	1
225	2
227	3
228	5
229	2
230	10
231	5
232	1
241	60
242	22
243	25
244	13
245	4
246	5
247	1
254	1
255	18
256	18
257	679
258	159
259	68
260	11
261	2
262	2
269	12
270	2
271	17
272	3
273	1
285	1
287	18
288	5
289	3
315	1
316	1
317	10
318	3
319	2
329	2
330	2
331	34
332	18
333	8
334	2
358	5
359	125
360	50
361	23
362	5
374	2
