Mass spectrum: Acetoacetyl-CoA; GC-EI-TOF-MS; RT:395.752 sec
Class: Natural Product
Formula: C25H40N7O18P3S
Exact mass: 851.13634
SMILES: CC(=O)CC(=O)SCCNC(=O)CCNC(=O)C(O)C(C)(C)COP(O)(=O)OP(O)(=O)OCC(O1)C(OP(O)(O)=O)C(O)C1n(c2)c(n3)c(c(N)nc3)n2
InChI: InChI=1/C25H40N7O18P3S/c1-13(33)8-16(35)54-7-6-27-15(34)4-5-28-23(38)20(37)25(2,3)10-47-53(44,45)50-52(42,43)46-9-14-19(49-51(39,40)41)18(36)24(48-14)32-12-31-17-21(26)29-11-30-22(17)32/h11-12,14,18-20,24,36-37H,4-10H2,1-3H3,(H,27,34)(H,28,38)(H,42,43)(H,44,45)(H2,26,29,30)(H2,39,40,41)/f/h27-28,39-40,42,44H,26H2
Instrument type: GC-EI-TOF-MS
m/z	relative intensity
85	13
86	120
87	20
88	17
89	999
90	87
91	54
92	3
93	2
95	1
96	6
97	49
98	12
99	25
100	86
101	13
102	24
103	7
104	25
105	34
106	3
111	10
112	26
113	20
114	66
115	30
116	36
117	4
118	1
119	37
120	4
121	2
125	3
126	21
127	15
128	38
129	15
130	12
131	19
132	4
139	1
140	9
141	7
142	9
143	7
144	68
145	39
146	37
147	3
153	2
154	17
155	34
156	8
157	4
158	1
159	14
160	27
161	9
162	1
167	1
168	1
169	31
170	38
171	31
172	8
173	1
184	1
185	68
186	72
187	12
188	3
199	3
200	1
201	184
202	38
203	10
204	1
217	4
232	76
233	12
234	3
