Mass spectrum: trans-Chalcone; GC-EI-TOF-MS; RT:787.411 sec
Class: Natural Product
Formula: C11H15N5O4
Exact mass: 281.11240
SMILES: OC(=O)C(N)Cc(n1)n(C)c(C(=O)2)c1N(C)C(=O)N(C)2
InChI: InChI=1/C11H15N5O4/c1-14-6(4-5(12)10(18)19)13-8-7(14)9(17)16(3)11(20)15(8)2/h5H,4,12H2,1-3H3,(H,18,19)/f/h18H
Instrument type: GC-EI-TOF-MS
m/z	relative intensity
85	2
86	15
87	27
88	38
89	204
90	61
91	9
94	1
95	1
98	16
99	5
101	32
102	266
103	715
104	89
105	612
106	55
107	1
111	1
113	6
115	20
116	2
125	2
126	7
127	3
128	7
129	6
130	213
131	574
132	59
133	2
137	1
139	12
150	13
151	23
152	52
153	13
154	2
156	1
162	2
163	8
164	8
165	145
166	21
167	2
175	2
176	38
177	31
178	170
179	266
180	81
181	12
182	1
189	14
190	5
191	15
192	6
193	10
194	3
205	9
206	13
207	999
208	732
209	119
210	13
260	1
263	1
301	1
334	1
360	1
388	1
426	1
443	1
478	1
