Mass spectrum: Adenylosuccinic acid; GC-EI-TOF-MS; RT:803.661 sec
Class: Natural Product
Formula: C14H18N5O11P
Exact mass: 463.07404
SMILES: OC(=O)CC(C(O)=O)Nc(n3)c(n2)c(nc3)n(c2)C(O1)C(O)C(O)C(COP(O)(O)=O)1
InChI: InChI=1/C14H18N5O11P/c20-7(21)1-5(14(24)25)18-11-8-12(16-3-15-11)19(4-17-8)13-10(23)9(22)6(30-13)2-29-31(26,27)28/h3-6,9-10,13,22-23H,1-2H2,(H,20,21)(H,24,25)(H,15,16,18)(H2,26,27,28)/t5?,6?,9?,10?,13-/m0/s1/f/h18,20,24,26-27H
Instrument type: GC-EI-TOF-MS
m/z	relative intensity
85	63
86	41
87	39
88	17
89	330
90	29
91	23
92	1
94	20
96	7
97	3
98	32
99	51
100	56
101	353
102	69
103	151
104	11
105	112
106	16
107	17
109	5
110	7
111	19
112	15
113	57
114	47
115	99
116	118
117	134
118	16
119	55
120	6
121	29
122	2
123	6
125	9
126	79
127	40
128	28
129	674
130	176
131	167
132	22
133	455
134	63
135	113
136	10
137	34
140	9
141	11
142	28
143	56
144	10
145	30
146	1
147	902
148	156
149	141
150	21
151	37
152	12
153	6
154	4
156	16
157	42
158	224
159	47
160	183
161	45
162	4
163	46
164	3
165	11
166	5
167	15
168	62
169	16
170	10
171	2
172	9
173	39
174	39
175	8
176	2
177	10
178	1
179	12
180	2
181	38
182	17
183	23
184	22
185	8
186	4
187	5
189	55
190	14
191	75
192	11
193	59
194	11
195	50
196	11
197	14
198	45
199	13
200	38
201	8
202	10
203	12
204	36
205	58
206	9
207	97
208	12
209	17
211	298
212	46
213	24
214	9
215	25
216	30
217	863
218	220
219	80
220	18
221	13
224	4
225	75
226	17
227	71
228	12
229	4
230	12
231	12
232	2
234	2
235	1
238	4
239	1
240	2
241	5
242	11
243	15
244	7
246	2
249	3
253	9
254	3
255	1
256	33
257	15
258	9
259	4
260	4
261	2
262	4
264	3
269	11
270	3
271	2
272	44
273	6
274	14
276	4
283	20
284	4
285	23
286	9
288	9
289	7
291	4
297	1
298	19
299	610
300	290
301	118
302	37
303	3
304	5
305	1
306	2
309	3
311	8
313	11
314	49
315	999
316	324
317	175
318	32
319	6
328	12
329	4
330	6
331	9
332	6
334	1
338	3
340	1
341	19
342	11
343	2
344	1
345	4
346	1
356	3
357	84
358	25
359	8
360	1
362	6
368	1
369	19
370	2
372	2
373	17
374	2
375	3
376	3
377	1
382	1
386	8
387	24
388	13
389	10
402	4
403	66
404	33
405	13
406	8
407	4
414	1
415	1
420	2
421	1
422	1
424	2
425	2
427	2
428	4
432	2
433	3
440	1
441	2
445	2
458	8
459	52
460	27
461	14
462	4
463	2
477	4
479	1
486	5
492	1
500	1
