Mass spectrum: Sulfanilamide; GC-EI-TOF-MS; RT:865.611 sec
Class: Natural Product
Formula: C6H8N2O2S
Exact mass: 172.03065
SMILES: Nc(c1)ccc(c1)S(N)(=O)=O
InChI: InChI=1/C6H8N2O2S/c7-5-1-3-6(4-2-5)11(8,9)10/h1-4H,7H2,(H2,8,9,10)/f/h8H2
Instrument type: GC-EI-TOF-MS
m/z	relative intensity
85	31
86	28
87	14
88	7
89	36
90	51
91	155
92	70
93	84
94	52
95	61
96	45
97	24
98	23
99	7
100	17
101	7
102	14
103	38
104	62
105	89
106	131
107	66
108	71
109	28
110	44
111	17
112	10
113	6
114	5
115	20
116	9
117	23
118	47
119	102
120	196
121	111
122	80
123	28
124	12
125	3
126	2
127	3
128	16
129	5
130	27
131	36
132	199
133	116
134	458
135	113
136	88
137	62
138	274
139	33
140	32
141	6
142	11
143	435
144	67
145	11
146	84
147	328
148	379
149	337
150	129
151	40
152	15
153	7
154	6
155	1
156	2
157	1
158	3
159	1
160	13
161	23
162	97
163	343
164	196
165	77
166	92
167	20
168	9
169	1
170	2
172	1
176	8
177	17
178	258
179	315
180	226
181	60
182	18
183	3
184	1
190	1
191	6
192	6
193	8
194	14
195	8
196	11
197	6
198	2
204	3
205	3
206	10
207	5
208	10
209	5
210	6
211	65
212	49
213	16
214	5
215	1
219	4
220	9
221	14
222	227
223	57
224	27
225	4
226	1
227	15
228	57
229	40
230	9
231	3
234	1
235	25
236	34
237	39
238	108
239	29
240	13
241	2
242	1
244	8
245	1
249	1
251	11
252	12
253	55
254	14
255	9
256	1
283	1
285	12
286	3
299	1
300	25
301	999
302	299
303	157
304	37
305	7
306	1
307	1
308	1
309	2
310	2
312	2
315	17
316	475
317	138
318	74
319	15
320	4
380	2
449	1
