Mass spectrum: Maleic acid; GC-EI-TOF-MS; RT:443.612 sec
Class: Natural Product
Formula: C8H16O3
Exact mass: 160.10994
SMILES: CCCC(O)CC(=O)OCC
InChI: InChI=1/C8H16O3/c1-3-5-7(9)6-8(10)11-4-2/h7,9H,3-6H2,1-2H3
Instrument type: GC-EI-TOF-MS
m/z	relative intensity
85	21
86	4
87	7
88	1
89	5
92	2
93	7
94	1
95	3
97	2
98	23
99	11
100	3
101	5
102	3
103	14
104	2
105	6
107	1
111	4
113	16
114	2
115	47
116	6
117	17
118	3
119	6
126	24
127	7
128	7
129	5
131	20
132	7
133	58
134	9
135	6
141	1
142	6
143	35
144	4
145	2
146	1
147	999
148	159
149	86
150	9
151	3
155	15
156	3
157	10
158	1
159	3
170	25
171	8
172	2
173	4
201	1
215	9
216	3
217	2
242	6
243	1
245	74
246	15
247	7
248	1
