Mass spectrum: a-Sorbopyranose; GC-EI-TOF-MS; RT:713.887 sec
Class: Natural Product
Formula: C6H12O6
Exact mass: 180.06339
SMILES: OCC(O)C(O)C(O)C(=O)CO
InChI: InChI=1/C6H12O6/c7-1-3(9)5(11)6(12)4(10)2-8/h3,5-9,11-12H,1-2H2/t3-,5+,6+/m0/s1
Instrument type: GC-EI-TOF-MS
m/z	relative intensity
85	27
86	13
87	23
88	14
89	200
90	18
91	9
92	2
93	1
94	2
95	1
96	2
97	2
98	5
99	10
100	25
101	49
102	17
103	999
104	98
105	66
106	5
107	2
108	1
110	3
111	5
112	2
113	18
114	163
115	35
116	22
117	145
118	19
119	27
120	3
121	1
124	3
125	1
126	6
127	6
128	9
129	112
130	23
131	56
132	11
133	142
134	21
135	12
136	1
137	1
138	1
140	3
141	4
142	14
143	22
144	5
145	11
146	3
147	529
148	86
149	58
150	7
151	4
152	2
153	1
154	2
155	2
156	6
157	21
158	7
159	6
160	2
161	4
162	1
163	18
164	3
165	2
166	2
167	1
168	5
169	2
170	6
171	2
172	18
173	36
174	11
175	16
176	3
177	6
178	1
179	1
180	4
181	1
182	2
183	1
184	1
185	1
186	4
187	3
188	5
189	75
190	20
191	44
192	8
193	4
194	1
196	4
197	1
198	6
199	1
200	3
201	16
202	16
203	11
204	39
205	54
206	12
207	10
208	2
209	1
214	5
215	3
216	9
217	615
218	136
219	60
220	9
221	16
222	3
223	2
228	2
229	4
230	4
231	12
232	4
233	2
240	3
241	1
242	2
243	1
244	6
245	3
246	2
247	1
254	1
255	1
256	4
257	1
258	1
260	2
261	1
262	26
263	18
264	5
265	3
266	1
267	1
268	2
269	1
270	2
271	1
272	1
274	1
275	2
276	4
277	35
278	14
279	6
280	2
286	1
288	2
289	1
291	4
292	1
300	2
302	2
303	1
304	1
305	3
306	4
307	168
308	51
309	25
310	5
311	1
318	2
319	6
320	2
321	1
330	1
332	1
333	3
334	4
335	9
336	7
337	3
338	1
344	1
350	2
351	1
358	1
363	1
364	19
365	7
366	3
367	1
376	2
390	2
391	1
464	1
465	1
466	1
