Mass spectrum: Indoxyl Sulfate; GC-EI-TOF-MS; RT:630.276 sec
Class: Natural Product
Formula: C8H7NO4S
Exact mass: 213.00958
SMILES: c(c2)cc(n1)c(c2)c(c1)OS(O)(=O)=O
InChI: InChI=1/C8H7NO4S/c10-14(11,12)13-8-5-9-7-4-2-1-3-6(7)8/h1-5,9H,(H,10,11,12)/f/h10H
Instrument type: GC-EI-TOF-MS
m/z	relative intensity
85	8
86	14
87	20
88	20
89	147
90	39
91	37
92	12
93	24
94	6
95	78
96	4
98	1
99	2
100	4
101	13
102	39
103	107
104	123
105	89
106	16
107	12
108	2
109	2
110	1
114	9
115	19
116	65
117	42
118	15
119	61
120	24
121	10
122	2
127	1
128	26
129	18
130	294
131	86
132	288
133	61
134	231
135	50
136	20
137	5
142	2
143	8
144	14
145	16
146	60
147	44
148	20
149	7
150	3
151	1
156	3
157	1
158	2
159	6
160	98
161	25
162	715
163	223
164	57
165	10
166	1
170	5
171	2
172	15
173	8
174	22
175	6
176	7
177	5
178	25
179	5
180	2
182	1
183	1
184	2
186	4
187	3
188	19
189	8
190	182
191	40
192	11
193	1
202	9
203	6
204	301
205	999
206	189
207	51
208	5
209	1
