Mass spectrum: N-FormylGlycine; GC-EI-TOF-MS; RT:445.050 sec
Class: Natural Product
Formula: C3H5NO3
Exact mass: 103.02694
SMILES: O=CNCC(O)=O
InChI: InChI=1/C3H5NO3/c5-2-4-1-3(6)7/h2H,1H2,(H,4,5)(H,6,7)/f/h4,6H
Instrument type: GC-EI-TOF-MS
m/z	relative intensity
85	11
86	409
87	50
88	22
89	4
95	3
97	1
98	1
99	8
100	233
101	49
102	46
103	25
104	3
105	6
113	9
114	8
115	15
116	21
117	58
118	11
119	19
120	2
128	1
129	4
130	50
131	57
132	19
133	169
134	28
135	15
136	2
143	1
144	16
145	4
146	8
147	367
148	59
149	32
150	2
151	1
158	24
159	7
160	14
161	3
172	13
173	3
174	999
175	197
176	89
177	21
178	3
187	1
188	15
189	4
190	2
202	5
204	7
205	1
246	9
247	3
248	140
249	46
250	23
251	4
252	1
276	44
277	14
278	6
