Mass spectrum: Indoxyl Sulfate; GC-EI-TOF-MS; RT:481.553 sec
Class: Natural Product
Formula: C8H7NO4S
Exact mass: 213.00958
SMILES: c(c2)cc(n1)c(c2)c(c1)OS(O)(=O)=O
InChI: InChI=1/C8H7NO4S/c10-14(11,12)13-8-5-9-7-4-2-1-3-6(7)8/h1-5,9H,(H,10,11,12)/f/h10H
Instrument type: GC-EI-TOF-MS
m/z	relative intensity
85	11
86	85
87	12
88	14
89	6
90	1
91	4
92	11
93	12
94	1
95	4
98	4
99	13
100	422
101	47
102	245
103	25
104	10
105	1
106	1
108	3
110	2
112	1
114	54
115	7
116	20
117	6
118	1
119	1
120	2
122	4
123	6
124	5
126	1
128	14
129	2
130	5
131	1
134	4
136	1
137	5
138	3
139	2
144	14
145	2
146	1
148	1
152	3
153	5
154	1
155	1
158	2
160	1
164	3
166	29
167	4
168	3
179	1
180	69
181	12
182	137
183	16
184	12
185	1
192	1
194	5
195	1
196	54
197	20
198	8
199	1
208	6
209	2
210	6
211	3
212	1
215	1
223	1
224	999
225	147
226	91
227	10
228	2
238	87
239	13
240	9
241	1
