Mass spectrum: DL-Methionine sulfoxide; GC-EI-TOF-MS; RT:665.048 sec
Class: Natural Product
Formula: C5H11NO3S
Exact mass: 165.04596
SMILES: NC(CCS(C)=O)C(O)=O
InChI: InChI=1/C5H11NO3S/c1-10(9)3-2-4(6)5(7)8/h4H,2-3,6H2,1H3,(H,7,8)/f/h7H
Instrument type: GC-EI-TOF-MS
m/z	relative intensity
85	19
86	24
87	13
88	13
89	2
90	6
91	13
92	5
93	1
95	2
96	15
97	8
98	21
99	10
100	121
101	32
102	112
103	29
104	18
105	5
106	9
107	8
108	8
109	5
110	174
111	12
112	16
113	2
114	63
115	18
116	8
117	20
118	10
119	23
120	1
121	4
126	26
127	45
128	999
129	140
130	86
131	32
132	26
133	41
134	39
135	7
136	4
138	2
139	3
140	12
142	1
143	4
144	16
145	5
146	10
147	127
148	28
149	19
151	2
152	2
153	2
155	2
156	6
157	4
158	6
159	6
160	23
161	5
163	1
164	1
165	1
167	4
168	2
169	5
170	1
171	1
172	16
174	316
175	58
176	52
177	7
178	7
179	1
180	3
181	1
183	1
184	16
185	2
186	5
188	5
189	2
192	1
196	2
197	1
199	1
201	1
202	53
203	13
204	7
206	4
207	4
208	1
218	40
219	17
220	6
221	2
224	2
225	1
226	1
227	1
228	3
230	1
232	2
233	3
234	3
235	4
236	2
237	1
240	2
245	1
246	2
248	34
249	12
250	5
251	1
252	1
253	1
254	2
259	4
261	2
262	1
265	2
266	2
268	1
271	4
275	1
276	4
278	2
281	1
283	1
292	2
297	2
298	3
300	2
301	21
302	2
303	3
306	1
308	2
311	1
314	3
315	1
316	2
318	2
320	3
321	1
323	1
325	1
329	1
330	1
335	1
339	4
340	1
342	4
343	1
344	2
345	1
346	1
350	1
351	2
355	1
359	1
364	1
365	4
367	1
369	1
370	1
371	3
372	1
374	4
379	4
389	2
390	2
396	2
398	1
400	6
402	2
404	1
405	1
406	4
412	1
414	3
415	1
416	3
418	1
419	1
421	4
424	1
427	2
433	2
437	1
439	3
442	1
444	2
445	2
447	1
448	1
449	1
451	3
456	2
457	2
458	1
459	2
462	5
466	1
468	2
469	1
473	1
474	2
475	1
477	2
479	1
484	1
486	2
487	3
488	1
489	2
492	3
494	1
495	2
496	2
500	2
