Mass spectrum: Glutaric anhydrate; GC-EI-TOF-MS; RT:499.844 sec
Class: Natural Product
Formula: C8H14N4O2
Exact mass: 198.11168
SMILES: O=N(=O)C(C3)(C1)CN(C2)CN(CCN23)1
InChI: InChI=1/C8H14N4O2/c13-12(14)8-3-9-1-2-10(4-8)7-11(5-8)6-9/h1-7H2
Instrument type: GC-EI-TOF-MS
m/z	relative intensity
85	63
86	9
87	13
88	27
89	18
90	2
91	2
92	3
93	4
94	1
95	6
96	2
97	159
98	12
99	22
100	5
101	55
102	9
103	14
104	3
105	5
106	1
107	1
109	1
111	3
112	1
113	11
114	2
115	24
116	126
117	60
118	11
119	8
120	1
121	1
123	13
124	1
125	1
127	11
128	4
129	190
130	70
131	37
132	9
133	65
134	9
135	6
136	1
141	1
142	2
143	17
144	3
145	17
146	4
147	999
148	150
149	135
150	17
151	7
152	1
155	1
157	1
158	192
159	55
160	13
161	3
162	7
163	3
164	1
171	7
172	1
173	1
175	1
186	60
187	24
188	5
189	16
190	4
191	3
201	2
203	47
204	44
205	11
206	4
217	4
218	1
219	3
220	1
233	43
234	15
235	6
236	1
261	128
262	28
263	12
264	2
276	1
