Mass spectrum: L-Glutathione Oxidized; GC-EI-TOF-MS; RT:670.368 sec
Class: Natural Product
Formula: C20H32N6O12S2
Exact mass: 612.15196
SMILES: OC(=O)CNC(=O)[C@H](CSSC[C@H](NC(=O)CC[C@H](N)C(O)=O)C(=O)NCC(O)=O)NC(=O)CC[C@H](N)C(O)=O
InChI: InChI=1/C20H32N6O12S2/c21-9(19(35)36)1-3-13(27)25-11(17(33)23-5-15(29)30)7-39-40-8-12(18(34)24-6-16(31)32)26-14(28)4-2-10(22)20(37)38/h9-12H,1-8,21-22H2,(H,23,33)(H,24,34)(H,25,27)(H,26,28)(H,29,30)(H,31,32)(H,35,36)(H,37,38)/t9-,10-,11-,12-/m0/s1/f/h23-26,29,31,35,37H
Instrument type: GC-EI-TOF-MS
m/z	relative intensity
85	18
86	1
87	46
88	1
89	88
90	4
91	8
96	8
97	15
99	17
101	105
102	19
103	424
104	46
105	19
106	6
111	16
113	31
114	6
115	42
116	10
117	284
118	19
119	49
120	5
121	2
127	9
129	999
130	111
131	131
132	21
133	326
134	40
135	30
140	2
143	58
144	4
145	16
147	602
148	87
149	148
150	11
151	16
153	1
155	258
156	90
157	93
158	8
159	13
161	10
163	29
164	4
165	1
169	12
170	8
171	81
172	10
173	20
174	12
175	154
176	25
177	37
179	3
188	48
189	347
190	45
191	95
192	19
193	25
194	4
195	3
200	4
201	14
203	31
206	2
207	74
208	14
209	7
215	4
216	1
217	538
218	131
219	76
220	4
221	101
222	4
223	10
224	3
230	7
231	19
233	11
234	4
235	5
241	2
242	26
243	57
244	180
245	75
246	16
247	5
249	13
261	5
262	4
263	30
264	11
267	3
271	6
272	7
273	8
281	2
295	1
305	2
331	7
332	4
333	8
334	4
335	5
343	4
344	6
363	6
370	2
372	2
418	1
441	1
445	1
452	1
474	1
476	1
498	1
