Mass spectrum: Adenylosuccinic acid; GC-EI-TOF-MS; RT:942.241 sec
Class: Natural Product
Formula: C14H18N5O11P
Exact mass: 463.07404
SMILES: OC(=O)CC(C(O)=O)Nc(n3)c(n2)c(nc3)n(c2)C(O1)C(O)C(O)C(COP(O)(O)=O)1
InChI: InChI=1/C14H18N5O11P/c20-7(21)1-5(14(24)25)18-11-8-12(16-3-15-11)19(4-17-8)13-10(23)9(22)6(30-13)2-29-31(26,27)28/h3-6,9-10,13,22-23H,1-2H2,(H,20,21)(H,24,25)(H,15,16,18)(H2,26,27,28)/t5?,6?,9?,10?,13-/m0/s1/f/h18,20,24,26-27H
Instrument type: GC-EI-TOF-MS
m/z	relative intensity
85	112
86	49
87	42
88	18
89	17
90	7
91	22
92	33
93	22
94	10
95	40
96	50
97	24
98	73
99	143
100	100
101	45
102	20
103	45
104	12
105	16
106	11
107	15
108	12
109	19
110	21
111	67
112	17
113	23
114	8
115	28
116	35
117	64
118	15
119	59
120	18
121	10
122	18
123	43
124	26
125	20
126	25
127	13
128	16
129	78
130	30
131	172
132	50
133	198
134	37
135	41
136	21
137	34
138	38
139	17
140	7
141	22
142	19
143	23
144	15
145	15
146	7
147	999
148	177
149	135
150	51
151	33
152	16
153	11
154	10
155	14
156	14
157	35
158	33
159	30
160	23
161	30
162	20
163	18
164	36
165	58
166	20
167	22
168	9
169	9
170	14
171	34
172	20
173	15
174	14
175	26
176	20
177	45
178	23
179	19
180	16
181	9
182	2
183	15
185	4
186	14
187	17
188	25
189	25
190	20
191	293
192	136
193	63
194	33
195	18
196	15
197	14
198	10
199	4
200	4
201	13
202	3
203	20
204	25
205	22
206	44
207	20
208	23
209	10
210	10
211	11
212	8
213	5
214	8
215	26
216	31
217	27
218	83
219	20
220	14
221	37
222	28
223	17
224	16
225	2
226	2
227	4
229	1
230	18
231	47
232	130
233	34
234	16
235	19
236	53
237	26
238	27
239	13
242	8
243	5
244	32
245	101
246	38
247	12
248	21
249	26
250	22
251	18
252	13
253	5
254	6
255	1
256	6
258	49
259	37
260	725
261	182
262	56
263	88
264	465
265	156
266	59
267	19
268	3
269	4
270	7
271	1
273	8
274	10
275	15
276	22
277	13
278	30
279	18
280	10
281	16
282	8
285	6
286	9
287	13
288	11
289	12
290	62
291	21
292	27
293	12
294	12
295	3
296	11
297	3
299	4
300	2
302	4
303	8
304	153
305	62
306	34
307	14
308	9
309	2
310	4
311	11
312	2
313	7
314	12
315	3
316	14
317	9
318	17
319	9
320	24
321	1
322	19
323	6
324	4
327	10
328	8
329	13
330	10
331	46
332	756
333	305
334	158
335	49
336	40
337	32
338	23
339	10
340	8
341	5
342	4
343	3
344	3
345	5
346	6
348	8
349	7
350	13
351	4
352	8
353	4
354	7
355	4
356	1
357	5
358	10
359	65
360	35
361	26
362	14
363	17
364	6
365	16
366	9
367	5
370	4
371	2
373	7
375	5
376	19
377	14
378	25
379	9
380	13
382	9
383	4
384	9
385	1
387	5
389	4
390	11
391	12
392	10
393	8
394	4
395	9
397	2
398	4
399	11
400	4
401	13
404	12
405	19
406	147
407	79
408	58
409	29
410	20
414	7
416	1
417	2
418	3
419	2
420	10
421	61
422	433
423	267
424	97
425	33
426	8
428	3
429	5
431	11
433	13
434	7
435	3
437	2
438	9
440	1
441	4
442	1
445	1
446	1
447	1
448	5
449	40
450	43
451	33
452	24
453	8
454	11
455	6
456	2
457	4
459	5
460	6
461	1
462	8
464	3
465	6
466	2
467	1
468	11
469	6
470	3
471	5
472	5
474	4
475	7
476	8
477	8
478	7
479	11
480	4
481	3
482	3
483	1
484	2
485	1
487	3
489	2
490	4
491	13
492	11
493	3
494	4
495	8
497	4
499	1
500	4
