Mass spectrum: Gluconic acid; GC-EI-TOF-MS; RT:720.644 sec
Class: Natural Product
Formula: C6H12O7
Exact mass: 196.05830
SMILES: OCC(O)C(O)C(O)C(O)C(O)=O
InChI: InChI=1/C6H12O7/c7-1-2(8)3(9)4(10)5(11)6(12)13/h2-5,7-11H,1H2,(H,12,13)/t2-,3-,4+,5-/m1/s1/f/h12H
Instrument type: GC-EI-TOF-MS
m/z	relative intensity
85	28
86	5
87	37
88	12
89	97
90	13
91	7
92	1
95	9
96	1
97	39
98	7
99	40
100	8
101	99
102	108
103	326
104	39
105	29
106	2
107	5
109	2
111	24
112	5
113	40
114	6
115	47
116	33
117	255
118	32
119	49
120	7
121	5
125	10
126	1
127	20
128	6
129	999
130	213
131	155
132	31
133	313
134	49
135	42
136	3
137	3
139	3
140	2
141	14
142	14
143	145
144	25
145	37
146	8
147	899
148	150
149	138
150	21
151	19
152	3
153	11
154	2
155	32
156	9
157	238
158	35
159	22
160	3
161	15
162	2
163	17
164	2
165	1
166	1
167	1
168	2
169	126
170	21
171	39
172	4
173	17
174	5
175	18
176	8
177	22
178	4
181	1
182	1
183	2
185	7
186	3
187	4
188	1
189	175
190	48
191	98
192	18
193	13
194	3
195	2
196	1
197	22
198	4
199	6
200	1
201	42
202	14
203	44
204	141
205	47
206	16
207	19
208	3
209	1
210	1
212	1
213	2
214	2
215	39
216	11
217	174
218	48
219	73
220	277
221	80
222	34
223	7
224	2
226	1
227	9
228	1
229	160
230	55
231	47
232	12
233	6
234	1
235	1
240	1
241	4
242	7
243	91
244	24
245	35
246	7
247	7
249	1
256	1
257	25
258	13
259	24
260	5
261	1
262	1
263	2
264	1
265	4
266	1
267	2
268	2
270	1
271	34
272	7
273	6
274	1
277	2
278	1
283	1
286	1
287	6
288	1
289	1
291	12
292	6
293	2
304	1
305	18
306	6
307	4
312	2
316	1
317	11
318	10
319	187
320	68
321	35
322	8
323	3
324	2
331	20
332	11
333	42
334	17
335	17
336	5
345	1
346	1
359	1
361	16
362	7
363	3
364	1
375	1
376	1
377	2
378	1
388	1
417	1
450	2
451	5
452	5
453	1
465	1
466	6
467	4
468	1
