Mass spectrum: Inosine-3',5'-cyllic-monophosphate; GC-EI-TOF-MS; RT:1090.416 sec
Class: Natural Product
Formula: C10H11N4O7P
Exact mass: 330.03654
SMILES: O=C(N4)c(n3)c(N=C4)n(c3)C(O1)C(O)C(O2)C(COP(O)(=O)2)1
InChI: InChI=1/C10H11N4O7P/c15-6-7-4(1-19-22(17,18)21-7)20-10(6)14-3-13-5-8(14)11-2-12-9(5)16/h2-4,6-7,10,15H,1H2,(H,17,18)(H,11,12,16)/t4-,6-,7-,10-/m1/s1/f/h12,17H
Instrument type: GC-EI-TOF-MS
m/z	relative intensity
85	74
86	38
87	23
88	8
89	47
90	10
91	39
92	15
93	29
94	24
95	30
96	23
97	157
98	48
99	65
100	50
101	86
102	24
103	60
104	15
105	29
106	22
107	61
108	14
109	55
110	87
111	95
112	30
113	35
114	7
115	43
116	42
117	39
118	14
119	56
120	18
121	90
122	24
123	69
124	34
125	102
126	34
127	46
128	14
129	121
130	25
131	31
132	14
133	305
134	61
135	125
136	36
137	191
138	95
139	57
140	238
141	58
142	128
143	139
144	25
145	20
146	34
147	96
148	27
149	33
150	26
151	39
152	21
153	101
154	24
155	176
156	24
157	21
158	48
159	11
160	15
161	4
162	12
163	42
164	19
165	37
166	80
167	52
168	25
169	310
170	53
171	74
172	13
173	9
174	5
175	8
176	15
177	49
178	15
179	56
180	21
181	120
182	27
183	57
184	16
185	13
186	5
187	7
188	18
189	7
190	4
191	13
192	28
193	489
194	86
195	96
196	18
197	43
198	9
199	8
201	3
202	5
203	8
204	5
205	53
206	26
207	123
208	48
209	346
210	76
211	999
212	200
213	112
214	20
215	16
216	3
217	7
218	6
219	14
220	204
221	58
222	32
223	15
224	6
225	157
226	38
227	201
228	45
229	26
230	4
231	8
232	6
233	20
234	12
235	30
236	9
237	271
238	54
239	17
240	6
241	13
242	3
243	334
244	67
245	36
246	11
247	17
248	14
249	30
250	10
251	12
252	2
253	13
254	3
255	5
256	3
257	6
258	37
259	26
260	9
261	13
262	6
263	10
264	3
265	21
266	9
267	13
268	3
269	6
270	3
271	2
272	2
273	18
274	4
275	7
276	2
277	7
278	3
279	18
280	10
281	114
282	39
283	18
284	5
285	7
286	4
287	44
288	12
289	11
290	4
291	10
292	4
293	5
294	3
295	24
296	6
297	4
298	1
299	23
300	6
301	3
302	3
303	5
304	21
305	14
306	4
307	21
308	7
309	12
310	214
311	65
312	27
313	6
314	1
315	7
316	3
318	1
319	1
320	3
321	5
322	5
323	51
324	14
325	5
326	3
329	4
331	2
333	3
334	2
335	17
336	7
337	4
338	88
339	35
340	12
341	3
342	2
343	1
344	1
345	4
346	2
347	8
348	6
349	4
355	1
359	1
360	2
361	7
362	1
363	4
364	1
366	1
367	1
368	1
369	1
375	17
376	28
377	14
378	9
379	55
380	22
381	9
382	15
383	6
384	1
385	1
387	1
389	1
390	1
393	1
394	1
395	3
404	2
407	1
410	1
422	1
424	1
427	1
442	2
443	8
444	1
447	1
454	1
455	1
456	20
457	12
458	4
459	1
463	1
