Mass spectrum: D-(+)-Glucono-1,5-lactone; GC-EI-TOF-MS; RT:725.343 sec
Class: Natural Product
Formula: C6H10O6
Exact mass: 178.04774
SMILES: OCC(O1)C(O)C(O)C(O)C(=O)1
InChI: InChI=1/C6H10O6/c7-1-2-3(8)4(9)5(10)6(11)12-2/h2-5,7-10H,1H2/t2-,3-,4+,5-/m1/s1
Instrument type: GC-EI-TOF-MS
m/z	relative intensity
85	25
86	7
87	35
88	18
89	88
90	10
91	19
93	1
97	76
98	5
99	34
101	99
102	46
103	412
104	37
105	19
107	2
108	1
110	3
111	19
112	10
113	20
115	29
116	25
117	292
118	29
119	48
124	2
125	3
127	12
128	8
129	328
130	60
131	132
132	12
133	304
134	34
135	44
140	5
141	3
142	30
143	126
144	17
145	28
146	2
147	962
148	163
149	153
150	14
151	8
153	16
154	2
155	27
156	6
157	41
158	8
159	12
160	5
162	6
163	8
165	1
168	1
169	48
170	12
171	15
172	12
173	1
174	3
175	16
177	14
178	2
189	198
190	40
191	83
193	21
197	14
198	4
199	3
201	7
203	20
204	290
205	218
206	56
207	20
212	1
215	21
216	12
217	999
218	223
219	122
220	28
221	30
222	3
223	2
227	5
228	3
229	10
230	52
231	19
232	3
233	1
242	3
243	85
244	110
245	51
246	18
247	6
249	1
257	5
260	2
265	3
271	26
286	3
291	5
292	19
293	5
298	3
299	2
305	45
306	24
307	7
308	3
313	1
317	12
318	14
319	9
323	5
331	3
332	42
333	37
334	29
335	20
336	6
337	1
348	15
350	4
361	20
363	6
364	5
365	2
371	1
373	1
388	1
393	3
394	1
435	5
440	3
449	1
453	1
466	6
472	2
473	3
474	3
476	1
485	3
486	1
