Mass spectrum: Hydroxyproline; GC-EI-TOF-MS; RT:560.843 sec
Class: Natural Product
Formula: C5H9NO3
Exact mass: 131.05824
SMILES: [H]C(O)(C1)CC([H])(N1)C(O)=O
InChI: InChI=1/C5H9NO3/c7-3-1-4(5(8)9)6-2-3/h3-4,6-7H,1-2H2,(H,8,9)/t3-,4+/m1/s1/f/h8H
Instrument type: GC-EI-TOF-MS
m/z	relative intensity
85	24
86	28
87	16
88	7
89	13
90	3
91	2
92	3
93	2
94	6
95	6
96	11
97	11
98	16
99	24
100	61
101	55
102	16
103	32
104	5
105	10
106	3
107	1
108	4
109	3
110	5
111	11
112	16
113	22
114	14
115	23
116	24
117	28
118	5
119	15
120	2
121	1
122	1
124	39
125	9
126	12
127	4
128	12
129	41
130	11
131	49
132	14
133	95
134	16
135	10
136	1
137	1
138	7
139	17
140	977
141	140
142	115
143	21
144	7
145	3
146	2
147	247
148	39
149	36
150	6
151	2
152	5
153	1
154	1
155	1
156	16
157	6
158	61
159	12
160	4
161	2
162	1
166	3
167	1
168	3
169	2
170	16
171	3
172	11
173	4
174	4
175	8
176	1
177	3
178	1
179	1
180	1
181	1
182	2
183	2
184	1
185	1
186	1
187	8
188	23
189	8
190	4
191	4
192	2
193	1
194	1
195	1
196	2
197	1
198	4
199	1
200	3
201	1
202	2
203	3
204	1
205	1
212	1
214	31
215	9
216	11
217	3
218	3
221	1
228	12
229	8
230	999
231	223
232	94
233	16
234	2
235	1
240	5
242	1
244	2
245	1
258	2
259	2
260	4
304	29
305	12
306	5
332	18
333	7
334	3
