Mass spectrum: Melatonine; GC-EI-TOF-MS; RT:935.624 sec
Class: Natural Product
Formula: C13H16N2O2
Exact mass: 232.12118
SMILES: CC(=O)NCCc(c1)c(c2)c(ccc(OC)2)n1
InChI: InChI=1/C13H16N2O2/c1-9(16)14-6-5-10-8-15-13-4-3-11(17-2)7-12(10)13/h3-4,7-8,15H,5-6H2,1-2H3,(H,14,16)/f/h14H
Instrument type: GC-EI-TOF-MS
m/z	relative intensity
85	8
86	14
87	10
88	11
89	68
90	21
91	19
92	5
93	8
94	4
95	7
96	2
97	2
98	1
99	3
100	12
101	27
102	35
103	33
104	9
105	13
106	6
107	4
108	4
109	4
110	1
112	1
113	4
114	12
115	73
116	70
117	49
118	7
119	13
120	5
121	8
124	2
126	2
127	8
128	30
129	30
130	47
131	28
132	17
133	11
134	8
135	7
136	3
138	1
139	1
140	8
141	10
142	23
143	28
144	72
145	56
146	30
147	16
148	8
149	9
150	2
151	1
152	1
153	2
154	7
155	7
156	26
157	16
158	26
159	43
160	59
161	9
162	11
163	4
164	3
165	1
166	1
167	1
168	4
169	6
170	18
171	12
172	49
173	27
174	25
175	37
176	14
177	5
178	2
179	1
182	2
183	2
184	10
185	7
186	39
187	28
188	19
189	9
190	5
192	2
193	1
195	1
196	1
198	9
199	7
200	39
201	24
202	74
203	22
204	13
205	3
206	2
210	2
212	4
213	8
214	17
215	32
216	22
217	18
218	10
219	5
225	5
226	1
228	5
229	18
230	130
231	58
232	999
233	209
234	61
235	10
236	1
237	1
238	3
239	2
241	1
243	4
244	19
245	770
246	184
247	66
248	10
249	2
250	2
256	1
257	3
259	2
260	16
261	7
268	3
269	1
273	2
274	1
275	1
278	1
281	2
286	1
287	3
289	4
298	1
303	3
304	138
305	41
306	8
308	2
311	1
312	1
313	2
317	1
318	1
326	3
330	1
331	1
332	1
333	1
350	1
351	1
352	1
361	2
372	3
379	1
384	1
385	1
394	1
400	2
404	1
422	1
430	1
435	1
441	1
446	1
448	1
452	1
453	1
469	1
477	1
479	1
485	2
488	1
492	1
493	2
499	1
