Mass spectrum: Agmatine; GC-EI-TOF-MS; RT:661.992 sec
Class: Natural Product
Formula: C5H14N4
Exact mass: 130.12185
SMILES: NCCCCNC(N)=N
InChI: InChI=1/C5H14N4/c6-3-1-2-4-9-5(7)8/h1-4,6H2,(H4,7,8,9)/f/h7,9H,8H2
Instrument type: GC-EI-TOF-MS
m/z	relative intensity
85	11
86	211
87	27
88	3
89	1
92	5
94	1
97	3
98	4
99	34
100	121
101	21
102	11
103	4
109	2
110	5
112	13
113	9
114	35
115	19
116	22
117	23
123	5
124	3
126	32
128	33
129	5
130	84
131	29
132	10
133	2
139	8
140	7
141	2
142	43
143	15
144	15
146	41
147	2
148	6
150	3
156	5
157	26
158	16
159	2
160	3
161	5
162	2
170	2
171	14
172	84
173	26
174	999
175	206
176	81
177	11
178	1
179	1
185	6
186	6
187	14
190	7
199	1
200	66
201	11
202	9
210	2
213	13
214	79
215	24
216	10
218	6
221	6
226	1
227	1
228	5
235	1
241	6
252	2
255	3
261	1
278	2
281	7
285	1
294	3
296	1
304	1
309	5
314	1
315	1
316	3
320	2
322	2
338	5
342	1
344	9
347	2
350	5
358	1
361	5
362	5
364	3
368	1
377	6
386	2
387	6
393	3
394	7
407	1
413	5
425	1
434	2
439	2
443	1
450	4
452	1
454	2
460	3
465	2
476	6
477	1
482	4
483	2
498	3
