Mass spectrum: Sulfanilamide; GC-EI-TOF-MS; RT:827.624 sec
Class: Natural Product
Formula: C6H8N2O2S
Exact mass: 172.03065
SMILES: Nc(c1)ccc(c1)S(N)(=O)=O
InChI: InChI=1/C6H8N2O2S/c7-5-1-3-6(4-2-5)11(8,9)10/h1-4H,7H2,(H2,8,9,10)/f/h8H2
Instrument type: GC-EI-TOF-MS
m/z	relative intensity
85	6
86	8
87	9
88	4
89	8
90	10
91	26
92	14
93	19
94	9
95	12
96	7
97	3
98	3
99	2
100	13
101	4
102	6
103	14
104	10
105	19
106	16
107	12
108	12
109	5
110	9
111	4
113	3
114	2
115	14
116	5
117	11
118	9
119	25
120	48
121	19
122	13
123	3
124	1
125	1
130	19
131	33
132	43
133	67
134	80
135	22
136	13
137	32
138	10
139	2
140	2
141	1
143	8
144	2
145	2
146	19
147	999
148	217
149	132
150	30
151	12
152	2
153	1
154	1
158	2
160	3
161	3
162	15
163	59
164	41
165	11
166	7
167	2
168	1
176	2
177	5
178	24
179	21
180	56
181	10
182	5
183	1
190	1
191	1
192	2
193	2
194	14
195	4
196	8
197	2
198	1
205	2
206	2
207	1
208	6
209	2
210	117
211	72
212	35
213	8
214	2
219	1
220	2
221	2
222	10
223	4
224	2
225	1
226	1
228	1
229	3
230	1
235	6
236	11
237	9
238	5
239	1
251	15
252	4
253	2
285	6
286	1
299	4
300	4
301	19
302	6
303	3
310	1
316	8
317	2
372	6
373	82
374	34
375	19
376	5
377	1
387	2
388	16
389	8
390	4
391	1
