Mass spectrum: Gluconic acid; GC-EI-TOF-MS; RT:725.494 sec
Class: Natural Product
Formula: C6H12O7
Exact mass: 196.05830
SMILES: OCC(O)C(O)C(O)C(O)C(O)=O
InChI: InChI=1/C6H12O7/c7-1-2(8)3(9)4(10)5(11)6(12)13/h2-5,7-11H,1H2,(H,12,13)/t2-,3-,4+,5-/m1/s1/f/h12H
Instrument type: GC-EI-TOF-MS
m/z	relative intensity
85	25
86	5
87	30
88	20
89	78
90	9
91	7
93	2
94	3
95	9
96	3
97	81
98	8
99	35
100	6
101	93
102	52
103	423
104	44
105	33
106	3
107	5
111	30
112	3
113	24
114	4
115	40
116	34
117	284
118	37
119	49
120	3
121	3
123	1
124	2
125	4
126	5
127	26
128	7
129	318
130	61
131	126
132	25
133	305
134	50
135	37
136	3
137	2
139	1
140	2
141	9
142	37
143	117
144	16
145	33
146	6
147	957
148	163
149	132
150	19
151	11
153	13
155	31
156	11
157	38
158	5
159	8
160	2
161	8
163	15
165	3
166	1
167	1
169	44
170	12
171	23
172	3
173	8
175	17
176	4
177	22
179	1
180	2
183	1
184	2
185	4
186	1
187	6
189	201
190	52
191	80
192	16
193	21
194	2
195	1
196	2
197	26
198	2
199	4
200	1
201	11
202	3
203	30
204	293
205	199
206	55
207	31
208	4
213	1
215	27
216	13
217	999
218	203
219	124
220	35
221	37
222	9
223	1
227	9
228	1
229	20
230	51
231	31
232	11
233	5
234	1
241	1
242	7
243	91
244	117
245	62
246	24
247	5
248	3
251	1
256	2
257	8
258	4
259	8
260	1
261	2
262	1
263	1
265	4
266	2
271	33
272	4
273	3
277	3
278	3
283	1
285	2
286	2
287	1
291	5
292	20
293	8
294	3
297	1
304	6
305	54
306	21
307	12
308	3
312	1
317	10
318	10
319	11
320	3
322	9
323	2
324	2
331	6
332	56
333	51
334	45
335	27
336	8
337	2
348	14
349	3
350	1
360	1
361	22
362	6
363	6
369	3
375	1
384	1
409	1
423	3
430	1
449	1
455	1
459	1
465	1
466	7
467	6
468	4
