Mass spectrum: N-Acetyl-Serotonin; GC-EI-TOF-MS; RT:942.293 sec
Class: Natural Product
Formula: C12H14N2O2
Exact mass: 218.10553
SMILES: CC(=O)NCCc(c1)c(c2)c(ccc(O)2)n1
InChI: InChI=1/C12H14N2O2/c1-8(15)13-5-4-9-7-14-12-3-2-10(16)6-11(9)12/h2-3,6-7,14,16H,4-5H2,1H3,(H,13,15)/f/h13H
Instrument type: GC-EI-TOF-MS
m/z	relative intensity
85	6
86	11
87	10
88	9
89	12
93	11
95	1
100	8
101	31
102	39
103	29
104	1
105	20
107	7
110	2
114	5
115	98
116	81
117	21
118	2
119	11
124	1
126	4
127	1
128	66
129	51
130	63
131	39
132	26
133	28
135	1
140	6
141	14
142	50
143	15
144	44
145	39
146	62
147	59
148	12
149	3
154	8
155	2
156	53
157	17
159	20
160	9
169	21
170	26
172	44
173	21
174	33
175	9
176	4
181	3
183	1
184	28
185	8
186	84
187	17
188	24
189	8
194	4
195	3
198	3
200	59
201	22
202	253
203	55
204	23
212	7
214	12
215	40
216	67
217	20
218	62
219	8
220	1
228	2
230	83
231	29
232	30
233	21
234	4
243	14
244	7
256	3
258	13
259	3
260	26
261	6
262	3
269	2
272	5
273	14
274	1
276	4
285	3
287	4
288	111
289	50
290	999
291	299
292	111
293	20
297	3
298	7
302	47
303	922
304	306
305	130
306	18
307	4
334	1
346	5
347	18
348	1
362	118
363	50
364	9
384	5
385	1
388	7
389	3
467	7
477	1
483	2
487	2
500	2
