Mass spectrum: UDP-D-Glucuronate; GC-EI-TOF-MS; RT:663.173 sec
Class: Natural Product
Formula: C15H22N2O18P2
Exact mass: 580.03428
SMILES: O=C(C=3)NC(=O)N(C3)[C@H](O1)[C@H](O)[C@H](O)[C@@H](COP(O)(=O)OP(O)(=O)O[C@@H](O2)[C@H](O)[C@@H](O)[C@H](O)[C@@H](C(O)=O)2)1
InChI: InChI=1/C15H22N2O18P2/c18-5-1-2-17(15(26)16-5)12-9(22)6(19)4(32-12)3-31-36(27,28)35-37(29,30)34-14-10(23)7(20)8(21)11(33-14)13(24)25/h1-2,4,6-12,14,19-23H,3H2,(H,24,25)(H,27,28)(H,29,30)(H,16,18,26)/t4-,6-,7+,8+,9-,10-,11+,12-,14-/m1/s1/f/h16,24,27,29H
Instrument type: GC-EI-TOF-MS
m/z	relative intensity
85	35
86	14
87	27
88	8
89	37
90	7
91	3
92	1
94	2
95	8
96	3
97	14
98	6
99	41
100	8
101	145
102	24
103	137
104	15
105	19
106	1
107	1
108	1
109	1
111	33
112	5
113	67
114	11
115	37
116	121
117	103
118	17
119	34
120	5
121	3
123	3
125	6
126	1
127	17
128	5
129	263
130	35
131	89
132	34
133	238
134	37
135	32
136	4
137	2
139	1
141	12
142	9
143	168
144	24
145	70
146	9
147	448
148	74
149	89
150	12
151	10
152	1
153	2
154	1
155	2
156	6
157	42
158	9
159	16
160	3
161	6
162	1
163	6
168	1
169	50
170	8
171	27
172	3
173	8
174	1
175	19
176	3
177	17
178	3
179	1
183	1
184	1
185	10
186	2
187	7
188	1
189	122
190	62
191	51
192	11
193	5
194	1
197	7
198	1
199	2
201	3
202	1
203	16
204	197
205	50
206	22
207	6
213	6
214	1
215	21
216	6
217	999
218	216
219	103
220	16
221	18
222	3
223	1
228	2
229	3
230	5
231	30
232	8
233	9
234	1
243	17
244	4
245	19
246	20
247	5
248	3
257	9
258	2
259	30
260	6
261	8
262	1
265	1
275	1
287	13
288	2
289	1
291	15
292	4
293	2
294	1
303	1
304	2
305	69
306	82
307	31
308	11
309	3
319	2
320	1
331	7
332	3
333	4
334	1
335	5
336	1
346	1
347	2
348	10
349	7
350	2
377	2
378	1
391	1
392	35
393	15
394	6
395	1
