Mass spectrum: myo-Inositol; GC-EI-TOF-MS; RT:800.803 sec
Class: Natural Product
Formula: C6H12O6
Exact mass: 180.06339
SMILES: OC(C(O)1)C(O)C(O)C(O)C(O)1
InChI: InChI=1/C6H12O6/c7-1-2(8)4(10)6(12)5(11)3(1)9/h1-12H/t1-,2-,3?,4?,5-,6?/m0/s1
Instrument type: GC-EI-TOF-MS
m/z	relative intensity
85	12
86	3
87	15
88	5
89	8
90	1
91	2
92	1
93	1
94	1
95	2
96	1
97	3
98	2
99	13
100	2
101	27
102	11
103	210
104	21
105	15
106	1
107	1
109	6
111	15
112	3
113	13
114	2
115	14
116	16
117	29
118	5
119	17
120	2
121	2
125	3
126	2
127	13
128	3
129	252
130	31
131	93
132	15
133	223
134	33
135	21
136	2
137	1
139	3
140	1
141	7
142	6
143	67
144	10
145	11
146	3
147	999
148	153
149	96
150	11
151	7
152	1
153	4
154	2
155	7
156	6
157	20
158	3
159	7
160	1
161	18
162	3
163	7
164	1
165	1
167	1
168	1
169	6
170	1
171	2
173	4
174	1
175	11
176	2
177	20
178	4
179	3
180	1
181	3
183	2
185	3
186	1
187	2
188	1
189	31
190	29
191	365
192	68
193	33
194	4
195	2
197	1
199	1
200	1
201	4
202	1
203	13
204	123
205	37
206	14
207	23
208	5
209	3
211	1
213	1
215	10
216	4
217	645
218	132
219	57
220	8
221	69
222	18
223	10
224	2
225	1
227	1
228	2
229	3
230	15
231	10
232	3
233	1
235	2
237	1
239	2
240	1
241	1
242	1
243	13
244	3
245	4
246	2
247	1
249	1
253	1
255	3
256	1
257	2
263	1
264	1
265	94
266	25
267	13
268	3
269	1
270	1
271	3
272	1
277	2
278	2
279	2
280	1
289	1
290	1
291	32
292	10
293	13
294	3
295	1
303	2
304	11
305	351
306	109
307	56
308	12
309	3
316	1
317	10
318	197
319	85
320	36
321	10
322	2
329	1
331	3
332	1
343	6
344	3
345	3
346	1
366	1
367	17
368	7
369	4
370	1
379	1
392	2
393	10
394	5
395	2
406	1
407	1
417	1
418	1
419	4
420	2
421	1
431	3
432	28
433	24
434	13
435	5
436	1
