Mass spectrum: N-Acetyl-Serotonin; GC-EI-TOF-MS; RT:924.111 sec
Class: Natural Product
Formula: C12H14N2O2
Exact mass: 218.10553
SMILES: CC(=O)NCCc(c1)c(c2)c(ccc(O)2)n1
InChI: InChI=1/C12H14N2O2/c1-8(15)13-5-4-9-7-14-12-3-2-10(16)6-11(9)12/h2-3,6-7,14,16H,4-5H2,1H3,(H,13,15)/f/h13H
Instrument type: GC-EI-TOF-MS
m/z	relative intensity
86	56
87	20
88	20
89	43
90	4
91	18
97	6
98	2
100	8
101	45
102	999
103	180
104	56
107	5
112	6
114	26
115	126
116	112
117	33
118	13
121	4
125	22
126	3
128	75
129	137
130	258
131	61
132	55
133	28
141	6
142	43
143	34
144	855
145	594
146	207
147	81
148	15
154	11
155	1
156	80
157	6
159	8
160	27
161	2
162	22
163	5
165	3
170	15
171	22
172	40
174	32
175	9
184	1
185	12
186	8
188	141
189	16
191	6
198	4
199	6
200	46
201	18
202	91
203	4
205	5
212	20
213	3
215	2
216	145
217	27
218	842
219	163
220	46
227	4
230	24
231	748
232	232
233	70
253	1
258	6
269	2
272	4
281	9
282	3
290	26
296	3
301	2
304	2
306	6
308	1
313	2
314	2
318	14
322	7
335	3
337	8
339	1
346	2
347	24
348	11
349	1
354	8
358	5
360	2
362	53
363	3
369	6
372	2
381	12
383	16
397	5
402	8
407	8
413	8
415	4
418	4
421	8
423	4
434	11
440	1
442	2
444	8
445	2
447	4
450	1
462	2
465	1
471	10
483	6
489	5
492	2
