Mass spectrum: DL-Homocysteine; GC-EI-TOF-MS; RT:949.941 sec
Class: Natural Product
Formula: C4H9NO2S
Exact mass: 135.03540
SMILES: SCCC(N)C(O)=O
InChI: InChI=1/C4H9NO2S/c5-3(1-2-8)4(6)7/h3,8H,1-2,5H2,(H,6,7)/f/h6H
Instrument type: GC-EI-TOF-MS
m/z	relative intensity
85	7
86	18
87	9
88	96
89	6
90	9
91	14
92	2
98	9
99	1
100	139
101	14
102	8
103	26
104	2
105	17
112	9
114	44
115	23
116	5
117	10
118	13
119	15
120	1
126	7
128	999
129	144
130	64
131	21
132	24
133	34
134	5
135	3
144	3
146	12
147	144
148	18
149	12
156	1
157	2
158	2
159	1
160	360
161	92
162	100
163	11
164	1
165	2
172	5
173	1
174	6
188	14
189	2
190	4
191	1
193	1
194	5
202	20
203	4
206	3
208	1
213	1
217	1
218	117
219	21
220	6
221	1
222	4
223	2
246	2
253	1
277	5
278	230
279	64
280	27
281	5
291	5
292	2
312	15
313	2
322	1
338	1
346	1
374	1
437	1
