Mass spectrum: 1,4-Piperazine diethanesulfonic acid; GC-EI-TOF-MS; RT:357.252 sec
Class: Natural Product
Formula: C8H18N2O6S2
Exact mass: 302.06063
SMILES: OS(=O)(=O)CCN(C1)CCN(C1)CCS(O)(=O)=O
InChI: InChI=1/C8H18N2O6S2/c11-17(12,13)7-5-9-1-2-10(4-3-9)6-8-18(14,15)16/h1-8H2,(H,11,12,13)(H,14,15,16)/f/h11,14H
Instrument type: GC-EI-TOF-MS
m/z	relative intensity
87	12
89	13
92	3
93	3
95	2
99	4
100	1
101	3
102	10
103	27
104	3
105	10
106	10
111	3
115	25
117	7
118	2
119	6
123	3
129	3
131	53
132	7
133	31
134	5
139	14
146	1
147	999
148	152
149	82
150	6
152	15
153	3
154	4
167	1
169	2
171	5
179	1
184	4
188	3
198	2
212	1
217	1
227	121
228	22
229	9
230	1
236	2
267	1
288	1
310	1
342	3
349	1
373	1
384	1
415	1
425	1
428	1
444	6
460	3
470	3
478	1
483	1
487	1
489	1
