Mass spectrum: Phenyl pyruvate; GC-EI-TOF-MS; RT:242.774 sec
Class: Natural Product
Formula: C9H8O3
Exact mass: 164.04734
SMILES: OC(=O)C(=O)Cc(c1)cccc1
InChI: InChI=1/C9H8O3/c10-8(9(11)12)6-7-4-2-1-3-5-7/h1-5H,6H2,(H,11,12)/f/h11H
Instrument type: GC-EI-TOF-MS
m/z	relative intensity
86	2
88	3
89	1
90	221
91	8
92	3
93	1
96	13
97	118
98	3
99	1
102	2
106	1
108	9
109	1
110	134
111	4
112	113
113	4
118	3
121	2
126	6
128	18
129	1
140	999
141	47
142	3
145	1
153	3
172	2
187	382
188	24
189	19
