Mass spectrum: Succinic anhydride; GC-EI-TOF-MS; RT:449.596 sec
Class: Natural Product
Formula: C4H5NO3
Exact mass: 115.02694
SMILES: O=C(C1)N(O)C(=O)C1
InChI: InChI=1/C4H5NO3/c6-3-1-2-4(7)5(3)8/h8H,1-2H2
Instrument type: GC-EI-TOF-MS
m/z	relative intensity
85	11
86	14
87	10
88	4
89	8
90	1
92	1
93	2
99	6
100	1
101	9
102	3
103	9
104	1
105	4
113	10
114	2
115	14
116	23
117	16
118	2
119	4
128	4
129	73
130	12
131	22
132	4
133	40
134	6
135	4
143	5
145	6
146	1
147	999
148	155
149	85
150	9
151	2
156	2
157	5
163	2
172	41
173	21
174	4
175	3
190	1
203	3
217	2
218	7
219	1
247	73
248	15
249	6
250	1
262	3
