Mass spectrum: Pyridoxal; GC-EI-TOF-MS; RT:626.986 sec
Class: Natural Product
Formula: C8H9NO3
Exact mass: 167.05824
SMILES: OCc(c1)c(C=O)c(O)c(C)n1
InChI: InChI=1/C8H9NO3/c1-5-8(12)7(4-11)6(3-10)2-9-5/h2,4,10,12H,3H2,1H3
Instrument type: GC-EI-TOF-MS
m/z	relative intensity
85	27
86	7
87	2
88	4
89	311
90	35
91	69
92	58
93	92
94	80
95	36
96	8
97	27
98	7
99	17
100	7
101	1
102	3
103	3
104	22
105	16
106	23
107	14
108	20
109	36
110	10
111	19
113	2
114	2
115	5
116	2
117	8
118	13
119	9
120	223
121	147
122	28
123	14
124	5
125	7
126	1
130	25
131	7
132	9
133	2
134	12
135	12
136	36
137	16
138	6
139	4
140	1
141	1
144	3
146	12
147	1
148	89
149	206
150	56
151	17
152	10
153	5
154	2
155	1
160	8
161	6
162	26
163	8
164	52
165	21
166	11
167	3
169	2
172	1
174	1
175	2
176	21
177	5
178	103
179	62
180	81
181	17
182	6
184	2
186	2
187	3
188	22
189	7
190	23
192	26
193	11
194	141
195	38
196	11
197	3
198	1
199	2
200	1
202	1
203	3
204	47
205	30
206	364
207	126
208	78
209	14
210	6
213	2
218	1
219	2
220	18
221	13
222	999
223	216
224	70
225	9
228	3
229	1
233	1
236	1
237	1
238	199
239	48
240	9
249	1
251	2
252	39
253	219
254	38
255	10
268	1
270	1
286	1
311	2
322	1
325	2
344	2
345	1
357	1
358	1
361	1
381	2
387	1
393	1
404	1
406	1
413	1
416	1
419	2
425	3
437	1
438	2
441	1
449	2
450	1
463	2
474	1
479	1
485	1
