Mass spectrum: L-(-)-Cystine; GC-EI-TOF-MS; RT:875.159 sec
Class: Natural Product
Formula: C6H12N2O4S2
Exact mass: 240.02385
SMILES: OC(=O)C([H])(N)CSSCC([H])(N)C(O)=O
InChI: InChI=1/C6H12N2O4S2/c7-3(5(9)10)1-13-14-2-4(8)6(11)12/h3-4H,1-2,7-8H2,(H,9,10)(H,11,12)/t3-,4-/m0/s1/f/h9,11H
Instrument type: GC-EI-TOF-MS
m/z	relative intensity
85	25
86	49
87	27
88	9
89	10
90	13
91	24
92	7
93	6
95	2
96	3
97	2
98	22
99	17
100	678
101	104
102	58
103	56
104	11
105	17
106	6
107	6
108	2
109	1
110	2
112	3
113	7
114	77
115	214
116	125
117	54
118	22
119	11
120	35
121	5
122	4
124	1
126	1
127	1
128	13
129	57
130	64
131	103
132	145
133	87
134	23
135	9
136	2
137	1
138	1
142	6
143	5
144	47
145	18
146	999
147	591
148	232
149	68
150	15
151	5
152	1
156	1
157	1
158	12
159	18
160	20
161	11
162	3
163	13
164	3
165	2
166	1
172	36
173	8
174	30
175	8
176	7
177	2
178	80
179	22
180	18
181	3
182	2
184	1
185	1
188	53
189	15
190	15
191	5
192	4
193	1
194	4
198	1
200	2
201	1
202	13
203	28
204	13
205	6
206	2
207	1
214	2
215	1
216	80
217	26
218	943
219	205
220	135
221	33
222	16
223	3
231	8
232	123
233	28
234	17
235	1
246	1
248	9
249	18
250	15
251	3
252	2
260	13
261	5
262	6
263	4
264	97
265	55
266	193
267	46
268	29
269	6
282	1
288	20
289	15
290	6
291	6
292	4
293	1
294	3
295	2
296	26
297	65
298	17
299	13
300	1
322	5
323	2
338	10
339	4
340	1
405	1
410	8
411	68
412	35
413	20
414	7
415	2
438	1
446	1
