Mass spectrum: N-Acetyl-Serotonin; GC-EI-TOF-MS; RT:948.936 sec
Class: Natural Product
Formula: C12H14N2O2
Exact mass: 218.10553
SMILES: CC(=O)NCCc(c1)c(c2)c(ccc(O)2)n1
InChI: InChI=1/C12H14N2O2/c1-8(15)13-5-4-9-7-14-12-3-2-10(16)6-11(9)12/h2-3,6-7,14,16H,4-5H2,1H3,(H,13,15)/f/h13H
Instrument type: GC-EI-TOF-MS
m/z	relative intensity
85	7
86	10
87	21
88	19
89	73
90	46
91	56
92	10
93	11
94	18
95	7
98	6
99	6
100	6
101	60
102	110
103	80
104	24
105	15
106	6
107	3
108	32
109	7
110	4
113	10
114	19
115	127
116	81
117	88
118	48
119	14
120	2
121	9
126	8
127	25
128	127
129	123
130	112
131	35
132	20
133	10
134	11
135	12
137	11
140	13
141	20
142	73
143	65
144	56
145	41
146	175
147	34
148	17
149	9
150	1
152	3
153	2
154	23
155	17
156	72
157	39
158	29
159	20
160	45
161	15
162	13
163	6
166	1
168	3
169	6
170	39
171	11
172	42
173	24
174	41
175	30
176	11
183	3
184	14
185	15
186	35
187	18
188	147
189	40
190	27
191	8
193	3
195	2
197	3
198	9
199	3
200	40
201	32
202	111
203	36
204	13
205	6
206	7
209	1
211	1
213	3
214	13
215	19
216	296
217	104
218	897
219	188
220	57
221	7
222	3
223	3
225	4
227	3
228	4
229	3
230	48
231	999
232	206
233	68
234	12
239	1
240	7
241	2
242	2
244	3
245	3
246	4
247	9
253	1
255	3
258	4
259	10
261	2
264	5
270	2
271	1
272	3
275	35
276	6
281	1
282	1
285	3
290	124
291	30
292	6
293	3
294	3
295	1
298	1
305	3
319	1
320	2
325	1
334	1
336	3
343	2
344	2
345	2
349	2
350	1
352	1
355	2
356	2
364	1
367	4
375	4
382	2
392	2
394	1
395	3
397	2
401	3
402	2
404	2
409	3
410	4
418	1
419	3
420	1
425	2
426	2
434	5
438	4
439	1
441	3
443	1
444	2
447	3
450	3
455	3
456	3
459	2
460	2
469	1
471	5
473	1
482	2
484	3
489	1
490	2
494	1
498	3
