Mass spectrum: D-Saccharic acid; GC-EI-TOF-MS; RT:769.752 sec
Class: Natural Product
Formula: C6H10O8
Exact mass: 210.03757
SMILES: OC(=O)C(O)C(O)C(O)C(O)C(O)=O
InChI: InChI=1/C6H10O8/c7-1(3(9)5(11)12)2(8)4(10)6(13)14/h1-4,7-10H,(H,11,12)(H,13,14)/t1-,2-,3-,4+/m0/s1/f/h11,13H
Instrument type: GC-EI-TOF-MS
m/z	relative intensity
85	15
86	4
87	18
88	4
89	9
90	1
91	1
92	1
93	4
95	9
96	1
97	2
98	1
99	23
100	5
101	31
102	85
103	94
104	12
105	11
111	6
112	2
113	12
114	3
115	20
116	14
117	43
118	6
119	18
120	2
121	1
125	3
126	1
127	16
128	4
129	71
130	44
131	91
132	18
133	174
134	26
135	18
136	1
137	1
141	6
142	6
143	227
144	29
145	20
146	3
147	999
148	160
149	112
150	14
151	8
152	1
155	3
156	3
157	10
158	2
159	8
160	1
161	9
163	8
169	6
170	2
171	64
172	9
173	11
174	2
175	16
176	2
177	7
178	1
179	1
183	7
185	3
187	3
189	136
190	35
191	59
192	13
193	9
194	1
201	6
202	1
203	9
204	56
205	23
206	8
207	30
208	7
209	4
211	4
212	1
213	1
215	9
216	3
217	116
218	25
219	60
220	16
221	90
222	24
223	12
224	2
225	1
229	13
230	4
231	15
232	4
233	3
235	1
243	1
244	1
245	26
246	6
247	3
249	1
250	1
251	1
257	13
258	2
259	2
261	3
263	2
265	3
273	2
277	44
278	16
279	10
280	1
281	1
285	2
291	23
292	228
293	75
294	36
295	9
296	1
303	4
304	3
305	80
306	31
307	15
308	4
317	2
318	4
319	5
320	4
321	7
322	3
323	1
331	7
332	21
333	528
334	178
335	88
336	21
337	6
338	1
345	15
346	6
347	4
348	1
372	2
373	26
374	11
375	5
379	6
380	3
381	1
393	8
394	3
395	2
407	1
418	1
419	12
420	7
421	4
422	4
423	26
424	13
425	6
426	2
435	11
436	5
437	3
446	1
447	11
448	5
449	2
