Mass spectrum: D-(+)-Glucono-1,5-lactone; GC-EI-TOF-MS; RT:764.343 sec
Class: Natural Product
Formula: C6H10O6
Exact mass: 178.04774
SMILES: OCC(O1)C(O)C(O)C(O)C(=O)1
InChI: InChI=1/C6H10O6/c7-1-2-3(8)4(9)5(10)6(11)12-2/h2-5,7-10H,1H2/t2-,3-,4+,5-/m1/s1
Instrument type: GC-EI-TOF-MS
m/z	relative intensity
85	13
86	4
87	19
88	13
89	57
90	8
91	3
92	1
93	2
95	3
96	1
97	16
98	3
99	16
100	4
101	55
102	63
103	407
104	44
105	21
106	2
107	6
108	1
109	1
111	8
112	1
113	15
114	3
115	16
116	19
117	235
118	26
119	25
120	2
121	2
125	3
126	1
127	9
128	2
129	181
130	50
131	93
132	16
133	176
134	26
135	17
136	2
137	1
140	1
141	8
142	5
143	116
144	15
145	15
146	4
147	999
148	160
149	109
150	12
151	7
152	1
153	9
154	2
155	5
156	2
157	87
158	12
159	11
160	2
161	10
162	2
163	12
164	2
165	1
169	22
170	4
171	26
172	3
173	7
174	1
175	18
176	4
177	9
178	1
179	1
181	1
183	1
185	2
187	3
188	1
189	120
190	32
191	68
192	14
193	8
194	2
195	1
197	11
198	2
199	1
201	6
202	3
203	13
204	112
205	205
206	46
207	38
208	7
209	4
215	7
216	3
217	244
218	55
219	49
220	18
221	55
222	14
223	8
224	1
227	5
228	1
229	28
230	9
231	13
232	4
233	3
235	1
237	1
241	5
242	2
243	10
244	4
245	17
246	5
247	3
249	1
257	4
258	1
259	5
260	1
261	2
263	2
265	5
266	1
267	1
269	8
270	1
271	4
272	1
273	1
277	38
278	15
279	8
280	2
281	1
291	23
292	215
293	72
294	35
295	8
296	2
303	1
304	5
305	95
306	37
307	32
308	10
309	3
315	5
316	2
317	3
318	5
319	97
320	34
321	23
322	6
323	2
330	1
331	17
332	15
333	214
334	76
335	37
336	10
337	2
343	2
344	1
345	12
346	4
347	3
348	1
351	1
358	2
359	35
360	14
361	7
362	2
379	4
380	2
389	1
390	1
392	1
393	5
394	3
395	2
405	4
406	4
407	3
408	1
421	3
422	5
423	27
424	14
425	7
426	2
432	2
433	18
434	12
435	19
436	9
437	5
438	1
449	1
