Mass spectrum: N,N-Dimethylarginine; GC-EI-TOF-MS; RT:697.576 sec
Class: Natural Product
Formula: C8H18N4O2
Exact mass: 202.14298
SMILES: CN(C)C(=N)NCCCC(N)C(O)=O
InChI: InChI=1/C8H18N4O2/c1-12(2)8(10)11-5-3-4-6(9)7(13)14/h6H,3-5,9H2,1-2H3,(H2,10,11)(H,13,14)/t6-/m0/s1/f/h10-11,13H
Instrument type: GC-EI-TOF-MS
m/z	relative intensity
85	74
86	51
87	19
88	9
89	7
90	30
91	2
92	4
93	2
94	2
95	13
96	13
97	15
98	47
99	159
100	237
101	42
102	29
103	39
104	5
105	7
106	1
107	1
108	1
109	2
110	8
111	8
112	22
113	28
114	47
115	98
116	27
117	38
118	9
119	10
120	1
121	4
122	6
123	1
124	9
125	20
126	21
127	69
128	64
129	36
130	47
131	51
132	52
133	69
134	12
135	6
136	1
138	1
139	28
140	78
141	203
142	390
143	75
144	33
145	7
146	8
147	179
148	39
149	20
150	3
151	4
152	11
153	9
154	35
155	55
156	61
157	999
158	158
159	68
160	12
161	3
162	1
163	2
166	5
167	22
168	28
169	16
170	23
171	77
172	80
173	30
174	16
175	4
176	1
182	4
183	7
184	14
185	8
186	8
187	38
188	19
189	9
190	5
191	3
194	1
195	1
196	2
197	2
198	7
199	4
200	3
201	1
202	9
203	3
204	6
205	1
206	1
211	1
212	1
213	6
214	4
215	23
216	36
217	15
218	46
219	12
220	4
221	1
224	1
225	1
226	2
227	1
228	2
229	2
230	4
231	13
232	4
240	20
241	8
242	7
243	5
244	36
245	14
246	6
247	1
254	3
255	3
256	352
257	90
258	37
259	16
260	4
261	2
268	9
269	4
270	1
283	4
284	4
330	5
331	2
332	1
358	9
359	3
360	1
373	13
374	5
375	2
