Mass spectrum: Agmatine; GC-EI-TOF-MS; RT:357.179 sec
Class: Natural Product
Formula: C5H14N4
Exact mass: 130.12185
SMILES: NCCCCNC(N)=N
InChI: InChI=1/C5H14N4/c6-3-1-2-4-9-5(7)8/h1-4,6H2,(H4,7,8,9)/f/h7,9H,8H2
Instrument type: GC-EI-TOF-MS
m/z	relative intensity
86	1
87	17
88	4
89	13
90	1
91	3
92	3
93	9
95	3
101	4
102	12
103	30
104	3
105	12
106	9
107	2
108	1
110	1
113	1
114	1
115	26
116	6
117	11
118	3
119	3
122	1
123	4
125	1
131	50
132	9
133	29
134	5
138	1
139	14
147	999
148	159
149	78
150	9
152	8
153	3
167	5
186	1
227	117
228	24
229	17
257	1
262	1
274	1
289	1
304	1
312	1
332	1
341	1
376	1
378	2
385	1
399	1
426	1
432	1
