Mass spectrum: Phthalic acid; GC-EI-TOF-MS; RT:643.857 sec
Class: Natural Product
Formula: C7H14O2SSi
Exact mass: 190.04838
SMILES: O=C(C1)O[Si](C)(C)CCCS1
InChI: InChI=1/C7H14O2SSi/c1-11(2)5-3-4-10-6-7(8)9-11/h3-6H2,1-2H3
Instrument type: GC-EI-TOF-MS
m/z	relative intensity
85	9
86	1
87	7
88	2
89	26
90	13
91	41
92	7
93	20
94	2
95	4
96	3
97	2
101	6
102	4
103	28
104	44
105	61
106	6
107	4
108	1
109	1
110	1
111	2
112	1
113	1
115	12
116	3
117	10
118	9
119	66
120	10
121	8
122	1
125	1
126	15
127	3
129	3
131	27
132	7
133	42
134	8
135	54
136	7
137	4
140	48
141	5
145	2
146	1
147	999
148	163
149	86
150	9
151	3
161	5
162	2
163	46
164	6
165	3
175	1
176	5
177	2
178	3
179	4
180	1
181	2
192	4
193	21
194	4
195	2
205	1
207	2
209	1
219	15
220	32
221	46
222	9
223	4
265	6
266	2
267	1
294	1
295	71
296	18
297	7
298	1
310	8
311	2
