Mass spectrum: (+)-pantothenate; GC-EI-TOF-MS; 4 TMS; BP:73
Name: Transferred to D01082
Class: Natural Product
Formula: C9H16NO5
Exact mass: 218.10285
SMILES: OCC(C)(C)C(O)C(=O)NCCC([O-1])=O
InChI: 1/C9H17NO5/c1-9(2,5-11)7(14)8(15)10-4-3-6(12)13/h7,11,14H,3-5H2,1-2H3,(H,10,15)(H,12,13)/p-1/t7-/m0/s1/fC9H16NO5/h10H/q-1
Instrument type: GC-EI-TOF-MS
Derivative form: C21H48NO5Si4
Derivative mass: 506.26095
Base peak: 73
m/z	relative intensity
60	4
61	11
62	1
63	1
65	1
66	3
67	4
69	4
70	18
71	5
72	26
73	999
74	91
75	125
76	12
77	24
78	2
79	7
80	1
81	1
82	5
83	27
84	8
85	9
86	14
87	6
88	4
89	5
90	1
91	3
92	1
93	1
94	2
95	2
96	2
97	1
98	245
99	17
100	22
101	12
102	15
103	186
104	18
105	9
108	2
110	1
111	1
112	2
113	3
114	2
115	13
116	8
117	79
118	9
119	7
120	1
124	4
125	1
126	3
127	2
128	6
129	38
130	12
131	18
132	4
133	28
134	4
135	3
140	1
141	2
142	6
143	13
144	14
145	42
146	7
147	94
148	15
149	16
150	2
151	1
154	3
155	1
156	15
157	53
158	14
159	13
160	3
161	2
163	14
164	2
165	1
166	2
168	2
169	1
170	1
171	1
172	7
173	2
174	4
175	2
176	2
177	3
180	1
182	4
183	1
184	3
185	1
186	1
187	1
188	5
189	5
190	2
191	14
192	3
193	1
198	2
200	1
201	16
202	3
203	5
204	3
205	1
207	1
214	1
216	6
217	32
218	19
219	10
220	2
221	2
226	1
228	1
230	2
231	6
232	4
233	1
242	2
244	2
245	1
246	9
247	11
248	3
249	1
258	1
260	67
261	16
262	7
263	1
272	2
273	4
274	1
275	3
291	11
292	2
293	1
300	1
314	12
315	3
316	1
318	1
333	2
334	2
335	1
362	6
363	87
364	28
365	13
366	3
402	1
403	1
404	6
405	2
406	1
420	1
492	2
493	1
