Mass spectrum: (+-)-3-Methyl-2-oxovaleric acid; GC-EI-TOF-MS; 3 TMS; BP:73
Class: Natural Product
Formula: C6H9O3
Exact mass: 129.05517
SMILES: CCC(C)C(=O)C([O-1])=O
InChI: 1/C6H10O3/c1-3-4(2)5(7)6(8)9/h4H,3H2,1-2H3,(H,8,9)/p-1/fC6H9O3/q-1
Instrument type: GC-EI-TOF-MS
Derivative form: C15H33O3Si3
Derivative mass: 345.17375
Base peak: 73
m/z	relative intensity
60	15
61	17
62	1
63	1
64	2
65	1
66	3
67	5
68	2
69	2
70	20
71	10
72	23
73	999
74	96
75	98
76	8
77	10
78	1
79	2
80	3
81	6
82	77
83	18
84	58
85	42
86	28
87	4
88	2
89	182
90	16
91	9
92	1
93	1
96	1
97	3
98	8
99	13
100	13
101	3
102	1
103	3
105	3
110	39
111	3
112	6
113	55
114	41
115	26
116	4
117	8
118	1
126	6
127	3
128	9
129	26
130	3
131	1
140	10
141	7
142	4
143	2
144	1
154	2
156	9
157	3
158	2
160	2
172	25
173	4
174	2
184	1
187	1
189	53
190	7
191	2
200	59
201	9
202	3
203	24
204	3
216	54
217	8
218	2
